# generated using pymatgen
data_Sr6NbH16
_symmetry_space_group_name_H-M   'P 1'
_cell_length_a   8.08277800
_cell_length_b   8.13451278
_cell_length_c   8.12971573
_cell_angle_alpha   59.59925645
_cell_angle_beta   60.23019932
_cell_angle_gamma   60.17111233
_symmetry_Int_Tables_number   1
_chemical_formula_structural   Sr6NbH16
_chemical_formula_sum   'Sr6 Nb1 H16'
_cell_volume   377.93961677
_cell_formula_units_Z   1
loop_
 _symmetry_equiv_pos_site_id
 _symmetry_equiv_pos_as_xyz
  1  'x, y, z'
loop_
 _atom_site_type_symbol
 _atom_site_label
 _atom_site_symmetry_multiplicity
 _atom_site_fract_x
 _atom_site_fract_y
 _atom_site_fract_z
 _atom_site_occupancy
  Sr  Sr0  1  0.99999900  0.50000100  0.50000000  1
  Sr  Sr1  1  0.50000000  0.50000000  -0.00000000  1
  Sr  Sr2  1  0.50000000  0.00000000  0.50000000  1
  Sr  Sr3  1  0.50000000  0.00000100  0.99999900  1
  Sr  Sr4  1  0.00000100  0.99999900  0.50000000  1
  Sr  Sr5  1  -0.00000000  0.50000000  0.00000100  1
  Nb  Nb6  1  -0.00000000  0.00000000  0.00000100  1
  H  H7  1  0.89894563  0.90085975  0.90125693  1
  H  H8  1  0.10105337  0.09913925  0.09874407  1
  H  H9  1  0.09874382  0.70106342  0.10105225  1
  H  H10  1  0.29893669  0.90125693  0.90085975  1
  H  H11  1  0.70106331  0.09874407  0.09913925  1
  H  H12  1  0.09914052  0.10105225  0.70106342  1
  H  H13  1  0.90125718  0.29893658  0.89894775  1
  H  H14  1  0.90085848  0.89894775  0.29893658  1
  H  H15  1  0.94129607  0.35295645  0.35297578  1
  H  H16  1  0.05870393  0.64704355  0.64702422  1
  H  H17  1  0.35297716  0.35277021  0.94129485  1
  H  H18  1  0.64702284  0.64722979  0.05870415  1
  H  H19  1  0.35295777  0.94129485  0.35277021  1
  H  H20  1  0.64704223  0.05870415  0.64722979  1
  H  H21  1  0.64722730  0.64702422  0.64704455  1
  H  H22  1  0.35277270  0.35297578  0.35295545  1
