# generated using pymatgen
data_SrNbH8
_symmetry_space_group_name_H-M   'P 1'
_cell_length_a   3.46049136
_cell_length_b   6.49071128
_cell_length_c   5.59438382
_cell_angle_alpha   52.95130199
_cell_angle_beta   91.30934177
_cell_angle_gamma   89.61620085
_symmetry_Int_Tables_number   1
_chemical_formula_structural   SrNbH8
_chemical_formula_sum   'Sr1 Nb1 H8'
_cell_volume   100.22965225
_cell_formula_units_Z   1
loop_
 _symmetry_equiv_pos_site_id
 _symmetry_equiv_pos_as_xyz
  1  'x, y, z'
loop_
 _atom_site_type_symbol
 _atom_site_label
 _atom_site_symmetry_multiplicity
 _atom_site_fract_x
 _atom_site_fract_y
 _atom_site_fract_z
 _atom_site_occupancy
  Sr  Sr0  1  0.83479168  0.84214910  0.12399244  1
  Nb  Nb1  1  0.36141284  0.48348990  0.82996380  1
  H  H2  1  0.33493504  0.72024000  0.91889560  1
  H  H3  1  0.34020286  0.80983485  0.49344784  1
  H  H4  1  0.27724153  0.29339065  0.30408141  1
  H  H5  1  0.48121780  0.23641894  0.29937086  1
  H  H6  1  0.81892567  0.28762099  0.00967274  1
  H  H7  1  0.82372108  0.66115149  0.67535640  1
  H  H8  1  0.32415839  0.16774125  0.88490019  1
  H  H9  1  0.34120610  0.51990182  0.48029172  1
