# generated using pymatgen
data_SrNbH6
_symmetry_space_group_name_H-M   'P 1'
_cell_length_a   3.36758205
_cell_length_b   4.08458208
_cell_length_c   5.50980040
_cell_angle_alpha   87.83088025
_cell_angle_beta   90.00494857
_cell_angle_gamma   89.99909881
_symmetry_Int_Tables_number   1
_chemical_formula_structural   SrNbH6
_chemical_formula_sum   'Sr1 Nb1 H6'
_cell_volume   75.73390969
_cell_formula_units_Z   1
loop_
 _symmetry_equiv_pos_site_id
 _symmetry_equiv_pos_as_xyz
  1  'x, y, z'
loop_
 _atom_site_type_symbol
 _atom_site_label
 _atom_site_symmetry_multiplicity
 _atom_site_fract_x
 _atom_site_fract_y
 _atom_site_fract_z
 _atom_site_occupancy
  Sr  Sr0  1  0.15249789  0.18981340  0.16827368  1
  Nb  Nb1  1  0.65250421  0.72809238  0.66017967  1
  H  H2  1  0.15245768  0.47225673  0.63825580  1
  H  H3  1  0.65248378  0.06895810  0.86095220  1
  H  H4  1  0.15245572  0.94416562  0.68912655  1
  H  H5  1  0.65248222  0.14290127  0.50866407  1
  H  H6  1  0.65241728  0.69042787  0.32606963  1
  H  H7  1  0.65248422  0.57429563  0.98031741  1
