# generated using pymatgen
data_SrNbH7
_symmetry_space_group_name_H-M   'P 1'
_cell_length_a   5.57256997
_cell_length_b   3.66011004
_cell_length_c   5.06967419
_cell_angle_alpha   49.75510101
_cell_angle_beta   87.19237579
_cell_angle_gamma   94.05766193
_symmetry_Int_Tables_number   1
_chemical_formula_structural   SrNbH7
_chemical_formula_sum   'Sr1 Nb1 H7'
_cell_volume   78.11669238
_cell_formula_units_Z   1
loop_
 _symmetry_equiv_pos_site_id
 _symmetry_equiv_pos_as_xyz
  1  'x, y, z'
loop_
 _atom_site_type_symbol
 _atom_site_label
 _atom_site_symmetry_multiplicity
 _atom_site_fract_x
 _atom_site_fract_y
 _atom_site_fract_z
 _atom_site_occupancy
  Sr  Sr0  1  0.49578976  0.12610280  0.45204489  1
  Nb  Nb1  1  0.97562322  0.26560582  0.89297327  1
  H  H2  1  0.82614435  0.62626422  0.48400566  1
  H  H3  1  0.30524030  0.26053270  0.94579450  1
  H  H4  1  0.03252851  0.43524683  0.14734116  1
  H  H5  1  0.17820470  0.56552744  0.49174247  1
  H  H6  1  0.64552111  0.98898515  0.02171952  1
  H  H7  1  0.76246755  0.59334703  0.90154832  1
  H  H8  1  0.06827050  0.89228700  0.66741720  1
