# generated using pymatgen
data_SrNbH6
_symmetry_space_group_name_H-M   'P 1'
_cell_length_a   3.41489143
_cell_length_b   3.41441716
_cell_length_c   7.46970418
_cell_angle_alpha   62.62378010
_cell_angle_beta   76.17708739
_cell_angle_gamma   89.91903956
_symmetry_Int_Tables_number   1
_chemical_formula_structural   SrNbH6
_chemical_formula_sum   'Sr1 Nb1 H6'
_cell_volume   74.50530087
_cell_formula_units_Z   1
loop_
 _symmetry_equiv_pos_site_id
 _symmetry_equiv_pos_as_xyz
  1  'x, y, z'
loop_
 _atom_site_type_symbol
 _atom_site_label
 _atom_site_symmetry_multiplicity
 _atom_site_fract_x
 _atom_site_fract_y
 _atom_site_fract_z
 _atom_site_occupancy
  Sr  Sr0  1  0.95710009  0.55756871  0.53895491  1
  Nb  Nb1  1  0.22382441  0.60002053  0.99166877  1
  H  H2  1  0.07884871  0.32774972  0.26654468  1
  H  H3  1  0.64765464  0.44743114  0.13384352  1
  H  H4  1  0.31086713  0.27382099  0.82020966  1
  H  H5  1  0.14959530  0.95939885  0.13228589  1
  H  H6  1  0.80951081  0.77538452  0.82129980  1
  H  H7  1  0.44701190  0.04090053  0.55652977  1
