# generated using pymatgen
data_SrNbH8
_symmetry_space_group_name_H-M   'P 1'
_cell_length_a   3.34044245
_cell_length_b   3.34556290
_cell_length_c   9.57367740
_cell_angle_alpha   74.60508319
_cell_angle_beta   67.48200613
_cell_angle_gamma   89.75407670
_symmetry_Int_Tables_number   1
_chemical_formula_structural   SrNbH8
_chemical_formula_sum   'Sr1 Nb1 H8'
_cell_volume   94.71743775
_cell_formula_units_Z   1
loop_
 _symmetry_equiv_pos_site_id
 _symmetry_equiv_pos_as_xyz
  1  'x, y, z'
loop_
 _atom_site_type_symbol
 _atom_site_label
 _atom_site_symmetry_multiplicity
 _atom_site_fract_x
 _atom_site_fract_y
 _atom_site_fract_z
 _atom_site_occupancy
  Sr  Sr0  1  0.86818820  0.32112915  0.27645240  1
  Nb  Nb1  1  0.73629095  0.07394541  0.94194965  1
  H  H2  1  0.11381064  0.98779425  0.05582831  1
  H  H3  1  0.23896450  0.73478070  0.38881087  1
  H  H4  1  0.50646805  0.91435898  0.15158137  1
  H  H5  1  0.38241337  0.17488672  0.81240813  1
  H  H6  1  0.87223385  0.66529320  0.81508095  1
  H  H7  1  0.61492219  0.48597491  0.05615079  1
  H  H8  1  0.48682753  0.08357197  0.59064585  1
  H  H9  1  0.37316673  0.95046470  0.56094969  1
