# generated using pymatgen
data_SrNbH6
_symmetry_space_group_name_H-M   'P 1'
_cell_length_a   3.64725297
_cell_length_b   3.65832329
_cell_length_c   7.57641238
_cell_angle_alpha   89.02273936
_cell_angle_beta   64.75317207
_cell_angle_gamma   122.70411500
_symmetry_Int_Tables_number   1
_chemical_formula_structural   SrNbH6
_chemical_formula_sum   'Sr1 Nb1 H6'
_cell_volume   72.75764227
_cell_formula_units_Z   1
loop_
 _symmetry_equiv_pos_site_id
 _symmetry_equiv_pos_as_xyz
  1  'x, y, z'
loop_
 _atom_site_type_symbol
 _atom_site_label
 _atom_site_symmetry_multiplicity
 _atom_site_fract_x
 _atom_site_fract_y
 _atom_site_fract_z
 _atom_site_occupancy
  Sr  Sr0  1  0.43520834  0.39096763  0.55862439  1
  Nb  Nb1  1  0.38126790  0.41111774  0.07092405  1
  H  H2  1  0.00972680  0.20186901  0.36278816  1
  H  H3  1  0.60401461  0.96842888  0.68485674  1
  H  H4  1  0.52218049  0.81938436  0.80169292  1
  H  H5  1  0.83816678  0.55065619  0.77493542  1
  H  H6  1  0.05627478  0.74121929  0.06490806  1
  H  H7  1  0.63837129  0.03533390  0.12482526  1
