# generated using pymatgen
data_SrNbH6
_symmetry_space_group_name_H-M   'P 1'
_cell_length_a   3.51662879
_cell_length_b   5.64646786
_cell_length_c   3.51731393
_cell_angle_alpha   89.74650130
_cell_angle_beta   89.56548703
_cell_angle_gamma   89.86166960
_symmetry_Int_Tables_number   1
_chemical_formula_structural   SrNbH6
_chemical_formula_sum   'Sr1 Nb1 H6'
_cell_volume   69.83876472
_cell_formula_units_Z   1
loop_
 _symmetry_equiv_pos_site_id
 _symmetry_equiv_pos_as_xyz
  1  'x, y, z'
loop_
 _atom_site_type_symbol
 _atom_site_label
 _atom_site_symmetry_multiplicity
 _atom_site_fract_x
 _atom_site_fract_y
 _atom_site_fract_z
 _atom_site_occupancy
  Sr  Sr0  1  0.35212584  0.91468178  0.83537160  1
  Nb  Nb1  1  0.82093054  0.41446955  0.30467093  1
  H  H2  1  0.87320134  0.08168284  0.35939327  1
  H  H3  1  0.37391369  0.24092230  0.32016008  1
  H  H4  1  0.37207831  0.58827157  0.32366611  1
  H  H5  1  0.86922845  0.74825615  0.35185447  1
  H  H6  1  0.83969071  0.58794981  0.85512635  1
  H  H7  1  0.83928313  0.24090500  0.85884319  1
