# generated using pymatgen
data_Sr2NbH8
_symmetry_space_group_name_H-M   'P 1'
_cell_length_a   3.53868100
_cell_length_b   3.52582064
_cell_length_c   9.49039096
_cell_angle_alpha   78.93831425
_cell_angle_beta   78.87421214
_cell_angle_gamma   87.92672580
_symmetry_Int_Tables_number   1
_chemical_formula_structural   Sr2NbH8
_chemical_formula_sum   'Sr2 Nb1 H8'
_cell_volume   114.02528146
_cell_formula_units_Z   1
loop_
 _symmetry_equiv_pos_site_id
 _symmetry_equiv_pos_as_xyz
  1  'x, y, z'
loop_
 _atom_site_type_symbol
 _atom_site_label
 _atom_site_symmetry_multiplicity
 _atom_site_fract_x
 _atom_site_fract_y
 _atom_site_fract_z
 _atom_site_occupancy
  Sr  Sr0  1  0.86321009  0.51990441  0.30083191  1
  Sr  Sr1  1  0.16921887  0.82513200  0.68912536  1
  Nb  Nb2  1  0.52557744  0.11957328  0.99505466  1
  H  H3  1  0.35836145  0.02070187  0.42329207  1
  H  H4  1  0.36434351  0.06778959  0.19978670  1
  H  H5  1  0.46537067  0.61937790  0.10204262  1
  H  H6  1  0.56901692  0.27194753  0.79011632  1
  H  H7  1  0.78648578  0.44888747  0.56669004  1
  H  H8  1  0.02258453  0.19312541  0.88831580  1
  H  H9  1  0.91595977  0.08667816  0.10168001  1
  H  H10  1  0.57236496  0.72598638  0.88790952  1
