# generated using pymatgen
data_SrNb2H9
_symmetry_space_group_name_H-M   'P 1'
_cell_length_a   4.19987191
_cell_length_b   5.69628203
_cell_length_c   7.37022558
_cell_angle_alpha   47.59564962
_cell_angle_beta   73.54347703
_cell_angle_gamma   89.16092274
_symmetry_Int_Tables_number   1
_chemical_formula_structural   SrNb2H9
_chemical_formula_sum   'Sr1 Nb2 H9'
_cell_volume   120.92827798
_cell_formula_units_Z   1
loop_
 _symmetry_equiv_pos_site_id
 _symmetry_equiv_pos_as_xyz
  1  'x, y, z'
loop_
 _atom_site_type_symbol
 _atom_site_label
 _atom_site_symmetry_multiplicity
 _atom_site_fract_x
 _atom_site_fract_y
 _atom_site_fract_z
 _atom_site_occupancy
  Sr  Sr0  1  0.60443943  0.32178855  0.73078326  1
  Nb  Nb1  1  0.22056187  0.04476313  0.47150861  1
  Nb  Nb2  1  0.87373944  0.43613485  0.15029559  1
  H  H3  1  0.01912372  0.88647067  0.84605362  1
  H  H4  1  0.20962755  0.67789885  0.51354853  1
  H  H5  1  0.69111125  0.05257490  0.53270545  1
  H  H6  1  0.83803618  0.71430615  0.20101628  1
  H  H7  1  0.02896410  0.51544840  0.84858249  1
  H  H8  1  0.59345222  0.11274732  0.21299356  1
  H  H9  1  0.19615780  0.31250044  0.53762808  1
  H  H10  1  0.10393515  0.11154322  0.21346501  1
  H  H11  1  0.37075729  0.50357051  0.15424355  1
