# generated using pymatgen
data_SrNbH6
_symmetry_space_group_name_H-M   'P 1'
_cell_length_a   3.51979244
_cell_length_b   3.52010675
_cell_length_c   5.64651411
_cell_angle_alpha   90.04141788
_cell_angle_beta   89.99088406
_cell_angle_gamma   89.53185895
_symmetry_Int_Tables_number   1
_chemical_formula_structural   SrNbH6
_chemical_formula_sum   'Sr1 Nb1 H6'
_cell_volume   69.95821022
_cell_formula_units_Z   1
loop_
 _symmetry_equiv_pos_site_id
 _symmetry_equiv_pos_as_xyz
  1  'x, y, z'
loop_
 _atom_site_type_symbol
 _atom_site_label
 _atom_site_symmetry_multiplicity
 _atom_site_fract_x
 _atom_site_fract_y
 _atom_site_fract_z
 _atom_site_occupancy
  Sr  Sr0  1  0.52035988  0.91147306  0.56893324  1
  Nb  Nb1  1  0.98937882  0.38075172  0.06942002  1
  H  H2  1  0.00652698  0.93243539  0.89543078  1
  H  H3  1  0.03939464  0.43050628  0.73598106  1
  H  H4  1  0.54122582  0.39891259  0.89547623  1
  H  H5  1  0.03956479  0.43174896  0.40186135  1
  H  H6  1  0.54143813  0.39800533  0.24253711  1
  H  H7  1  0.00871194  0.93320766  0.24250520  1
