# generated using pymatgen
data_SrNbH6
_symmetry_space_group_name_H-M   'P 1'
_cell_length_a   3.56550424
_cell_length_b   3.80293711
_cell_length_c   6.59056817
_cell_angle_alpha   89.55848506
_cell_angle_beta   56.55434526
_cell_angle_gamma   90.07447847
_symmetry_Int_Tables_number   1
_chemical_formula_structural   SrNbH6
_chemical_formula_sum   'Sr1 Nb1 H6'
_cell_volume   74.56232212
_cell_formula_units_Z   1
loop_
 _symmetry_equiv_pos_site_id
 _symmetry_equiv_pos_as_xyz
  1  'x, y, z'
loop_
 _atom_site_type_symbol
 _atom_site_label
 _atom_site_symmetry_multiplicity
 _atom_site_fract_x
 _atom_site_fract_y
 _atom_site_fract_z
 _atom_site_occupancy
  Sr  Sr0  1  0.46604316  0.30774192  0.41559746  1
  Nb  Nb1  1  0.49608817  0.80559202  0.92926397  1
  H  H2  1  0.76501524  0.81197009  0.10134969  1
  H  H3  1  0.11684143  0.80163724  0.74554148  1
  H  H4  1  0.35799707  0.30844681  0.04867381  1
  H  H5  1  0.71481259  0.55151084  0.65986220  1
  H  H6  1  0.72678672  0.04136066  0.64637307  1
  H  H7  1  0.09317661  0.80074543  0.27134132  1
