# generated using pymatgen
data_SrNbH6
_symmetry_space_group_name_H-M   'P 1'
_cell_length_a   3.80399355
_cell_length_b   3.56557829
_cell_length_c   5.50546198
_cell_angle_alpha   89.06113354
_cell_angle_beta   89.10461923
_cell_angle_gamma   90.00431646
_symmetry_Int_Tables_number   1
_chemical_formula_structural   SrNbH6
_chemical_formula_sum   'Sr1 Nb1 H6'
_cell_volume   74.65383991
_cell_formula_units_Z   1
loop_
 _symmetry_equiv_pos_site_id
 _symmetry_equiv_pos_as_xyz
  1  'x, y, z'
loop_
 _atom_site_type_symbol
 _atom_site_label
 _atom_site_symmetry_multiplicity
 _atom_site_fract_x
 _atom_site_fract_y
 _atom_site_fract_z
 _atom_site_occupancy
  Sr  Sr0  1  0.77344774  0.32618862  0.43759460  1
  Nb  Nb1  1  0.26974509  0.86823249  0.95123029  1
  H  H2  1  0.26632237  0.30574837  0.76603624  1
  H  H3  1  0.00691548  0.81936643  0.68671144  1
  H  H4  1  0.49813445  0.81578503  0.66326418  1
  H  H5  1  0.77505587  0.85401915  0.07047306  1
  H  H6  1  0.26262711  0.80418137  0.29335330  1
  H  H7  1  0.27858589  0.30817455  0.12260290  1
