# generated using pymatgen
data_SrNbH6
_symmetry_space_group_name_H-M   'P 1'
_cell_length_a   3.31786662
_cell_length_b   5.29684234
_cell_length_c   6.37519416
_cell_angle_alpha   109.55028078
_cell_angle_beta   116.99335233
_cell_angle_gamma   94.45535811
_symmetry_Int_Tables_number   1
_chemical_formula_structural   SrNbH6
_chemical_formula_sum   'Sr1 Nb1 H6'
_cell_volume   90.49358994
_cell_formula_units_Z   1
loop_
 _symmetry_equiv_pos_site_id
 _symmetry_equiv_pos_as_xyz
  1  'x, y, z'
loop_
 _atom_site_type_symbol
 _atom_site_label
 _atom_site_symmetry_multiplicity
 _atom_site_fract_x
 _atom_site_fract_y
 _atom_site_fract_z
 _atom_site_occupancy
  Sr  Sr0  1  0.03187831  0.45347753  0.86612806  1
  Nb  Nb1  1  0.09546512  0.84762787  0.44688596  1
  H  H2  1  0.42730722  0.09753633  0.79980148  1
  H  H3  1  0.68265562  0.70034298  0.56389412  1
  H  H4  1  0.54130023  0.96305758  0.36752836  1
  H  H5  1  0.15511247  0.19926769  0.46519775  1
  H  H6  1  0.83066219  0.86958336  0.13760705  1
  H  H7  1  0.81084284  0.48869967  0.18149922  1
