# generated using pymatgen
data_Sr2NbH7
_symmetry_space_group_name_H-M   'P 1'
_cell_length_a   3.76005747
_cell_length_b   5.49858683
_cell_length_c   6.26771496
_cell_angle_alpha   64.84895111
_cell_angle_beta   77.32612497
_cell_angle_gamma   91.84070585
_symmetry_Int_Tables_number   1
_chemical_formula_structural   Sr2NbH7
_chemical_formula_sum   'Sr2 Nb1 H7'
_cell_volume   113.28212459
_cell_formula_units_Z   1
loop_
 _symmetry_equiv_pos_site_id
 _symmetry_equiv_pos_as_xyz
  1  'x, y, z'
loop_
 _atom_site_type_symbol
 _atom_site_label
 _atom_site_symmetry_multiplicity
 _atom_site_fract_x
 _atom_site_fract_y
 _atom_site_fract_z
 _atom_site_occupancy
  Sr  Sr0  1  0.06251049  0.58658120  0.71169145  1
  Sr  Sr1  1  0.34558165  0.90052407  0.07748773  1
  Nb  Nb2  1  0.65425375  0.27287612  0.39694534  1
  H  H3  1  0.56154080  0.29781586  0.70292891  1
  H  H4  1  0.83711664  0.15241622  0.13618054  1
  H  H5  1  0.19097271  0.41457444  0.40570834  1
  H  H6  1  0.22993490  0.07384990  0.38696195  1
  H  H7  1  0.58829270  0.89710346  0.66439674  1
  H  H8  1  0.71862010  0.62887648  0.36064121  1
  H  H9  1  0.64900728  0.52386225  0.08072878  1
