# generated using pymatgen
data_SrNb2H7
_symmetry_space_group_name_H-M   'P 1'
_cell_length_a   3.72639836
_cell_length_b   4.39848828
_cell_length_c   6.76284137
_cell_angle_alpha   98.87705190
_cell_angle_beta   96.77384420
_cell_angle_gamma   98.74803029
_symmetry_Int_Tables_number   1
_chemical_formula_structural   SrNb2H7
_chemical_formula_sum   'Sr1 Nb2 H7'
_cell_volume   107.10357066
_cell_formula_units_Z   1
loop_
 _symmetry_equiv_pos_site_id
 _symmetry_equiv_pos_as_xyz
  1  'x, y, z'
loop_
 _atom_site_type_symbol
 _atom_site_label
 _atom_site_symmetry_multiplicity
 _atom_site_fract_x
 _atom_site_fract_y
 _atom_site_fract_z
 _atom_site_occupancy
  Sr  Sr0  1  0.07548106  0.07766658  0.03175517  1
  Nb  Nb1  1  0.89233119  0.60703890  0.43288959  1
  Nb  Nb2  1  0.50238583  0.07619745  0.54337083  1
  H  H3  1  0.33521959  0.60403845  0.87944935  1
  H  H4  1  0.41129053  0.63090932  0.99348466  1
  H  H5  1  0.55564449  0.15540231  0.82893463  1
  H  H6  1  0.87879071  0.58246876  0.15354274  1
  H  H7  1  0.64211363  0.17971931  0.28571219  1
  H  H8  1  0.00221617  0.00127206  0.63187458  1
  H  H9  1  0.43566080  0.59683287  0.55935627  1
