# generated using pymatgen
data_SrNbH6
_symmetry_space_group_name_H-M   'P 1'
_cell_length_a   3.39970300
_cell_length_b   6.59704866
_cell_length_c   3.73914241
_cell_angle_alpha   87.79837610
_cell_angle_beta   88.81150892
_cell_angle_gamma   120.49778085
_symmetry_Int_Tables_number   1
_chemical_formula_structural   SrNbH6
_chemical_formula_sum   'Sr1 Nb1 H6'
_cell_volume   72.12693842
_cell_formula_units_Z   1
loop_
 _symmetry_equiv_pos_site_id
 _symmetry_equiv_pos_as_xyz
  1  'x, y, z'
loop_
 _atom_site_type_symbol
 _atom_site_label
 _atom_site_symmetry_multiplicity
 _atom_site_fract_x
 _atom_site_fract_y
 _atom_site_fract_z
 _atom_site_occupancy
  Sr  Sr0  1  0.35443851  0.19060104  0.03744956  1
  Nb  Nb1  1  0.38331464  0.69770808  0.58900857  1
  H  H2  1  0.05029337  0.36595952  0.53886731  1
  H  H3  1  0.53555991  0.86915368  -0.00459720  1
  H  H4  1  0.94841965  0.79477224  0.35887178  1
  H  H5  1  0.18768316  0.52740313  0.02360760  1
  H  H6  1  0.76103178  0.60504450  0.80283513  1
  H  H7  1  0.68275898  0.02653980  0.49337125  1
