# generated using pymatgen
data_Sr(NbH4)2
_symmetry_space_group_name_H-M   'P 1'
_cell_length_a   3.52771946
_cell_length_b   5.79233700
_cell_length_c   5.60315512
_cell_angle_alpha   81.03502141
_cell_angle_beta   106.02109276
_cell_angle_gamma   90.27768810
_symmetry_Int_Tables_number   1
_chemical_formula_structural   Sr(NbH4)2
_chemical_formula_sum   'Sr1 Nb2 H8'
_cell_volume   108.61431094
_cell_formula_units_Z   1
loop_
 _symmetry_equiv_pos_site_id
 _symmetry_equiv_pos_as_xyz
  1  'x, y, z'
loop_
 _atom_site_type_symbol
 _atom_site_label
 _atom_site_symmetry_multiplicity
 _atom_site_fract_x
 _atom_site_fract_y
 _atom_site_fract_z
 _atom_site_occupancy
  Sr  Sr0  1  0.21062217  0.99106692  0.00181183  1
  Nb  Nb1  1  0.56000785  0.53515658  0.69748110  1
  Nb  Nb2  1  0.85514485  0.41190113  0.30534581  1
  H  H3  1  0.70798774  0.29979649  0.98298455  1
  H  H4  1  0.32860624  0.29036743  0.25063606  1
  H  H5  1  0.70504322  0.26170711  0.59842728  1
  H  H6  1  0.07615460  0.69947747  0.69538541  1
  H  H7  1  0.85954651  0.09115592  0.32848704  1
  H  H8  1  0.21283918  0.29769754  0.63764972  1
  H  H9  1  0.37139331  0.61256987  0.33411885  1
  H  H10  1  0.71179832  0.67758853  0.00161535  1
