# generated using pymatgen
data_Sr2NbH7
_symmetry_space_group_name_H-M   'P 1'
_cell_length_a   3.84763499
_cell_length_b   3.88081943
_cell_length_c   8.57507142
_cell_angle_alpha   102.38092393
_cell_angle_beta   77.29865845
_cell_angle_gamma   89.94786234
_symmetry_Int_Tables_number   1
_chemical_formula_structural   Sr2NbH7
_chemical_formula_sum   'Sr2 Nb1 H7'
_cell_volume   121.84931144
_cell_formula_units_Z   1
loop_
 _symmetry_equiv_pos_site_id
 _symmetry_equiv_pos_as_xyz
  1  'x, y, z'
loop_
 _atom_site_type_symbol
 _atom_site_label
 _atom_site_symmetry_multiplicity
 _atom_site_fract_x
 _atom_site_fract_y
 _atom_site_fract_z
 _atom_site_occupancy
  Sr  Sr0  1  0.89726462  0.05923094  0.27044885  1
  Sr  Sr1  1  0.63871073  0.30652044  0.79861549  1
  Nb  Nb2  1  0.26621487  0.68392307  0.53694067  1
  H  H3  1  0.38502599  0.57725937  0.29590421  1
  H  H4  1  0.52022323  0.95472596  0.03114038  1
  H  H5  1  0.04569580  0.58895739  0.99374559  1
  H  H6  1  0.14838370  0.80163163  0.77674811  1
  H  H7  1  0.03162818  0.41556821  0.02461089  1
  H  H8  1  0.24947771  0.19883537  0.56643307  1
  H  H9  1  0.74634317  0.67704162  0.57792775  1
