# generated using pymatgen
data_SrNbH8
_symmetry_space_group_name_H-M   'P 1'
_cell_length_a   3.40902344
_cell_length_b   7.09800807
_cell_length_c   5.82534875
_cell_angle_alpha   106.21673048
_cell_angle_beta   106.28477247
_cell_angle_gamma   118.66681054
_symmetry_Int_Tables_number   1
_chemical_formula_structural   SrNbH8
_chemical_formula_sum   'Sr1 Nb1 H8'
_cell_volume   103.40138850
_cell_formula_units_Z   1
loop_
 _symmetry_equiv_pos_site_id
 _symmetry_equiv_pos_as_xyz
  1  'x, y, z'
loop_
 _atom_site_type_symbol
 _atom_site_label
 _atom_site_symmetry_multiplicity
 _atom_site_fract_x
 _atom_site_fract_y
 _atom_site_fract_z
 _atom_site_occupancy
  Sr  Sr0  1  0.22661970  0.80239231  0.22096585  1
  Nb  Nb1  1  0.08676368  0.22382304  0.09555143  1
  H  H2  1  0.75002849  0.06338872  0.72812516  1
  H  H3  1  0.91055072  0.81290706  0.59925978  1
  H  H4  1  0.73375949  0.67763671  0.48385248  1
  H  H5  1  0.37396672  0.06804793  0.97349910  1
  H  H6  1  0.12042785  0.12941245  0.36371842  1
  H  H7  1  0.86946283  0.41608359  0.28506537  1
  H  H8  1  0.67542343  0.88874286  0.93496507  1
  H  H9  1  0.29417508  0.47718433  0.99636734  1
