# generated using pymatgen
data_SrNbH6
_symmetry_space_group_name_H-M   'P 1'
_cell_length_a   3.51575493
_cell_length_b   3.51594327
_cell_length_c   6.66458852
_cell_angle_alpha   90.27047581
_cell_angle_beta   57.94050262
_cell_angle_gamma   90.51328408
_symmetry_Int_Tables_number   1
_chemical_formula_structural   SrNbH6
_chemical_formula_sum   'Sr1 Nb1 H6'
_cell_volume   69.81596101
_cell_formula_units_Z   1
loop_
 _symmetry_equiv_pos_site_id
 _symmetry_equiv_pos_as_xyz
  1  'x, y, z'
loop_
 _atom_site_type_symbol
 _atom_site_label
 _atom_site_symmetry_multiplicity
 _atom_site_fract_x
 _atom_site_fract_y
 _atom_site_fract_z
 _atom_site_occupancy
  Sr  Sr0  1  0.47419600  0.98687243  0.98061018  1
  Nb  Nb1  1  0.44217923  0.51911073  0.48136151  1
  H  H2  1  0.63005521  0.96760870  0.30731367  1
  H  H3  1  0.29427629  0.96725944  0.65393475  1
  H  H4  1  0.15642629  0.47022230  0.81414311  1
  H  H5  1  0.82770020  0.47020148  0.14735485  1
  H  H6  1  0.82030192  0.49864077  0.65412183  1
  H  H7  1  0.16837985  0.49790513  0.30775511  1
