# generated using pymatgen
data_SrNbH8
_symmetry_space_group_name_H-M   'P 1'
_cell_length_a   3.48844251
_cell_length_b   5.39989261
_cell_length_c   6.34836551
_cell_angle_alpha   101.18853324
_cell_angle_beta   122.23830040
_cell_angle_gamma   90.99856284
_symmetry_Int_Tables_number   1
_chemical_formula_structural   SrNbH8
_chemical_formula_sum   'Sr1 Nb1 H8'
_cell_volume   98.16781801
_cell_formula_units_Z   1
loop_
 _symmetry_equiv_pos_site_id
 _symmetry_equiv_pos_as_xyz
  1  'x, y, z'
loop_
 _atom_site_type_symbol
 _atom_site_label
 _atom_site_symmetry_multiplicity
 _atom_site_fract_x
 _atom_site_fract_y
 _atom_site_fract_z
 _atom_site_occupancy
  Sr  Sr0  1  0.80638387  0.66577177  0.83781930  1
  Nb  Nb1  1  0.94216410  0.08026083  0.42534079  1
  H  H2  1  0.51320757  0.99007362  0.54722682  1
  H  H3  1  0.12142384  0.86374938  0.65168116  1
  H  H4  1  0.56981256  0.23728196  0.12300624  1
  H  H5  1  0.69186645  0.36488693  0.24611046  1
  H  H6  1  0.22341908  0.31961013  0.74790612  1
  H  H7  1  0.66767970  0.75323740  0.19140792  1
  H  H8  1  0.32134477  0.33102136  0.44080574  1
  H  H9  1  0.07882706  0.05296063  0.18114145  1
