# generated using pymatgen
data_SrNbH8
_symmetry_space_group_name_H-M   'P 1'
_cell_length_a   3.41039505
_cell_length_b   4.47054527
_cell_length_c   6.00128344
_cell_angle_alpha   70.83598481
_cell_angle_beta   89.95760651
_cell_angle_gamma   90.03704606
_symmetry_Int_Tables_number   1
_chemical_formula_structural   SrNbH8
_chemical_formula_sum   'Sr1 Nb1 H8'
_cell_volume   86.42691563
_cell_formula_units_Z   1
loop_
 _symmetry_equiv_pos_site_id
 _symmetry_equiv_pos_as_xyz
  1  'x, y, z'
loop_
 _atom_site_type_symbol
 _atom_site_label
 _atom_site_symmetry_multiplicity
 _atom_site_fract_x
 _atom_site_fract_y
 _atom_site_fract_z
 _atom_site_occupancy
  Sr  Sr0  1  0.06440516  0.54731981  0.91229771  1
  Nb  Nb1  1  0.56398809  0.83955505  0.33916757  1
  H  H2  1  0.56435905  0.85856566  0.64321800  1
  H  H3  1  0.17660776  0.14358551  0.70602764  1
  H  H4  1  0.95030690  0.14093884  0.71051097  1
  H  H5  1  0.06441062  0.09724028  0.29113470  1
  H  H6  1  0.56415372  0.02951622  0.00257069  1
  H  H7  1  0.06341600  0.62584888  0.40375841  1
  H  H8  1  0.56306989  0.45747328  0.56006711  1
  H  H9  1  0.56394281  0.48956647  0.23487620  1
