# generated using pymatgen
data_SrNbH8
_symmetry_space_group_name_H-M   'P 1'
_cell_length_a   3.32204412
_cell_length_b   3.94223474
_cell_length_c   6.95177391
_cell_angle_alpha   90.16191835
_cell_angle_beta   89.40284858
_cell_angle_gamma   87.57233140
_symmetry_Int_Tables_number   1
_chemical_formula_structural   SrNbH8
_chemical_formula_sum   'Sr1 Nb1 H8'
_cell_volume   90.95522380
_cell_formula_units_Z   1
loop_
 _symmetry_equiv_pos_site_id
 _symmetry_equiv_pos_as_xyz
  1  'x, y, z'
loop_
 _atom_site_type_symbol
 _atom_site_label
 _atom_site_symmetry_multiplicity
 _atom_site_fract_x
 _atom_site_fract_y
 _atom_site_fract_z
 _atom_site_occupancy
  Sr  Sr0  1  0.20599490  0.59847284  0.73723675  1
  Nb  Nb1  1  0.76200803  0.47035492  0.25140426  1
  H  H2  1  0.23325952  0.30601544  0.37913340  1
  H  H3  1  0.23663390  0.67529181  0.17636627  1
  H  H4  1  0.09134866  0.20651956  0.06767475  1
  H  H5  1  0.85810212  0.18469611  0.01666654  1
  H  H6  1  0.72310141  0.68476251  0.02228116  1
  H  H7  1  0.74378703  0.96400020  0.30331465  1
  H  H8  1  0.71064718  0.60857694  0.50534817  1
  H  H9  1  0.68044026  0.08878366  0.74607805  1
