# generated using pymatgen
data_Sr2NbH7
_symmetry_space_group_name_H-M   'P 1'
_cell_length_a   3.75810271
_cell_length_b   6.24890255
_cell_length_c   6.25273201
_cell_angle_alpha   71.79881297
_cell_angle_beta   72.40234356
_cell_angle_gamma   72.45851632
_symmetry_Int_Tables_number   1
_chemical_formula_structural   Sr2NbH7
_chemical_formula_sum   'Sr2 Nb1 H7'
_cell_volume   129.44490031
_cell_formula_units_Z   1
loop_
 _symmetry_equiv_pos_site_id
 _symmetry_equiv_pos_as_xyz
  1  'x, y, z'
loop_
 _atom_site_type_symbol
 _atom_site_label
 _atom_site_symmetry_multiplicity
 _atom_site_fract_x
 _atom_site_fract_y
 _atom_site_fract_z
 _atom_site_occupancy
  Sr  Sr0  1  0.31652827  0.04537641  0.07548794  1
  Sr  Sr1  1  0.69058172  0.66891212  0.69763060  1
  Nb  Nb2  1  0.50441534  0.31509760  0.42893054  1
  H  H3  1  0.68634878  0.02387175  0.34934157  1
  H  H4  1  0.65294207  0.36043878  0.09137157  1
  H  H5  1  0.99431944  0.35838140  0.40730810  1
  H  H6  1  0.35837320  0.65191395  0.38234778  1
  H  H7  1  0.00659360  0.81607701  0.92899432  1
  H  H8  1  0.55771740  0.07004570  0.67398710  1
  H  H9  1  0.31333017  0.39530527  0.71924648  1
