# generated using pymatgen
data_SrNbH6
_symmetry_space_group_name_H-M   'P 1'
_cell_length_a   3.51915936
_cell_length_b   3.52074132
_cell_length_c   5.64598119
_cell_angle_alpha   89.52209925
_cell_angle_beta   89.77297502
_cell_angle_gamma   90.20519620
_symmetry_Int_Tables_number   1
_chemical_formula_structural   SrNbH6
_chemical_formula_sum   'Sr1 Nb1 H6'
_cell_volume   69.95054851
_cell_formula_units_Z   1
loop_
 _symmetry_equiv_pos_site_id
 _symmetry_equiv_pos_as_xyz
  1  'x, y, z'
loop_
 _atom_site_type_symbol
 _atom_site_label
 _atom_site_symmetry_multiplicity
 _atom_site_fract_x
 _atom_site_fract_y
 _atom_site_fract_z
 _atom_site_occupancy
  Sr  Sr0  1  0.20261454  0.83469929  0.88904749  1
  Nb  Nb1  1  0.73463135  0.30341266  0.38831141  1
  H  H2  1  0.18273982  0.31782299  0.21559781  1
  H  H3  1  0.71453359  0.86028721  0.21535163  1
  H  H4  1  0.18059935  0.32374660  0.56264270  1
  H  H5  1  0.68095669  0.34831923  0.72247347  1
  H  H6  1  0.71677354  0.85338135  0.56227146  1
  H  H7  1  0.68628912  0.36248868  0.05620902  1
