# generated using pymatgen
data_SrNbH7
_symmetry_space_group_name_H-M   'P 1'
_cell_length_a   3.65334559
_cell_length_b   3.75003173
_cell_length_c   5.54467284
_cell_angle_alpha   93.45191293
_cell_angle_beta   93.85463103
_cell_angle_gamma   86.92764924
_symmetry_Int_Tables_number   1
_chemical_formula_structural   SrNbH7
_chemical_formula_sum   'Sr1 Nb1 H7'
_cell_volume   75.55987631
_cell_formula_units_Z   1
loop_
 _symmetry_equiv_pos_site_id
 _symmetry_equiv_pos_as_xyz
  1  'x, y, z'
loop_
 _atom_site_type_symbol
 _atom_site_label
 _atom_site_symmetry_multiplicity
 _atom_site_fract_x
 _atom_site_fract_y
 _atom_site_fract_z
 _atom_site_occupancy
  Sr  Sr0  1  0.01974775  0.31050290  0.99473737  1
  Nb  Nb1  1  0.45592200  0.73039656  0.49652830  1
  H  H2  1  0.48418966  0.76144328  0.16205673  1
  H  H3  1  0.56090782  0.29631831  0.33533422  1
  H  H4  1  0.07949261  0.45170107  0.43917697  1
  H  H5  1  0.03880180  0.91512152  0.35090394  1
  H  H6  1  0.07432280  0.80599977  0.68689108  1
  H  H7  1  0.48184965  0.33864359  0.68030871  1
  H  H8  1  0.58632890  0.84998100  0.82433566  1
