# generated using pymatgen
data_SrNbH6
_symmetry_space_group_name_H-M   'P 1'
_cell_length_a   3.51474479
_cell_length_b   3.51539519
_cell_length_c   6.64828512
_cell_angle_alpha   89.68890283
_cell_angle_beta   121.85249531
_cell_angle_gamma   90.41828423
_symmetry_Int_Tables_number   1
_chemical_formula_structural   SrNbH6
_chemical_formula_sum   'Sr1 Nb1 H6'
_cell_volume   69.77219632
_cell_formula_units_Z   1
loop_
 _symmetry_equiv_pos_site_id
 _symmetry_equiv_pos_as_xyz
  1  'x, y, z'
loop_
 _atom_site_type_symbol
 _atom_site_label
 _atom_site_symmetry_multiplicity
 _atom_site_fract_x
 _atom_site_fract_y
 _atom_site_fract_z
 _atom_site_occupancy
  Sr  Sr0  1  0.82842430  0.65369192  0.20252158  1
  Nb  Nb1  1  0.79663065  0.18519124  0.70210130  1
  H  H2  1  0.52201309  0.16677821  0.87614197  1
  H  H3  1  0.64146274  0.63386122  0.52918129  1
  H  H4  1  0.98965402  0.63277657  0.87607497  1
  H  H5  1  0.17954965  0.13379304  0.03597253  1
  H  H6  1  0.51452651  0.13665518  0.36919742  1
  H  H7  1  0.17591705  0.16630861  0.52909294  1
