# generated using pymatgen
data_SrNbH7
_symmetry_space_group_name_H-M   'P 1'
_cell_length_a   3.73120805
_cell_length_b   3.71585398
_cell_length_c   5.49308656
_cell_angle_alpha   87.30994006
_cell_angle_beta   90.71823090
_cell_angle_gamma   89.67983879
_symmetry_Int_Tables_number   1
_chemical_formula_structural   SrNbH7
_chemical_formula_sum   'Sr1 Nb1 H7'
_cell_volume   76.06822436
_cell_formula_units_Z   1
loop_
 _symmetry_equiv_pos_site_id
 _symmetry_equiv_pos_as_xyz
  1  'x, y, z'
loop_
 _atom_site_type_symbol
 _atom_site_label
 _atom_site_symmetry_multiplicity
 _atom_site_fract_x
 _atom_site_fract_y
 _atom_site_fract_z
 _atom_site_occupancy
  Sr  Sr0  1  0.01901960  0.07589037  0.96796030  1
  Nb  Nb1  1  0.43922814  0.63588585  0.46430831  1
  H  H2  1  0.56707760  0.05742478  0.30243587  1
  H  H3  1  0.54794532  0.50340941  0.78524050  1
  H  H4  1  0.49589975  0.59014267  0.12960719  1
  H  H5  1  0.04935936  0.59275875  0.66039551  1
  H  H6  1  0.50988463  0.01507599  0.65643135  1
  H  H7  1  0.01188314  0.53627856  0.30623851  1
  H  H8  1  0.11818745  0.98854762  0.43759246  1
