# generated using pymatgen
data_Sr(NbH6)2
_symmetry_space_group_name_H-M   'P 1'
_cell_length_a   4.63505341
_cell_length_b   4.55918727
_cell_length_c   6.04277598
_cell_angle_alpha   87.62094642
_cell_angle_beta   90.29492419
_cell_angle_gamma   94.95163693
_symmetry_Int_Tables_number   1
_chemical_formula_structural   Sr(NbH6)2
_chemical_formula_sum   'Sr1 Nb2 H12'
_cell_volume   127.11001867
_cell_formula_units_Z   1
loop_
 _symmetry_equiv_pos_site_id
 _symmetry_equiv_pos_as_xyz
  1  'x, y, z'
loop_
 _atom_site_type_symbol
 _atom_site_label
 _atom_site_symmetry_multiplicity
 _atom_site_fract_x
 _atom_site_fract_y
 _atom_site_fract_z
 _atom_site_occupancy
  Sr  Sr0  1  0.32296651  0.57761818  0.45740659  1
  Nb  Nb1  1  0.31640194  0.07988928  0.97457496  1
  Nb  Nb2  1  0.82921659  0.65090373  0.91396786  1
  H  H3  1  0.16871616  0.68702180  0.08195504  1
  H  H4  1  0.92418824  0.03861519  0.02752242  1
  H  H5  1  0.80516835  0.14932946  0.51251227  1
  H  H6  1  0.80945048  0.17182368  0.38670349  1
  H  H7  1  0.62330291  0.36660313  0.12308595  1
  H  H8  1  0.59032937  0.84230284  0.13121391  1
  H  H9  1  0.82991586  0.62832002  0.61603484  1
  H  H10  1  0.55360347  0.34652894  0.77806949  1
  H  H11  1  0.24252694  0.11276764  0.27071270  1
  H  H12  1  0.56701106  0.88875036  0.77153127  1
  H  H13  1  0.08903643  0.36907602  0.81390191  1
  H  H14  1  0.09918169  0.92089173  0.73788430  1
