# generated using pymatgen
data_SrNbH6
_symmetry_space_group_name_H-M   'P 1'
_cell_length_a   3.54087907
_cell_length_b   3.70389067
_cell_length_c   5.40519743
_cell_angle_alpha   91.72383516
_cell_angle_beta   90.92223011
_cell_angle_gamma   90.20648425
_symmetry_Int_Tables_number   1
_chemical_formula_structural   SrNbH6
_chemical_formula_sum   'Sr1 Nb1 H6'
_cell_volume   70.84746731
_cell_formula_units_Z   1
loop_
 _symmetry_equiv_pos_site_id
 _symmetry_equiv_pos_as_xyz
  1  'x, y, z'
loop_
 _atom_site_type_symbol
 _atom_site_label
 _atom_site_symmetry_multiplicity
 _atom_site_fract_x
 _atom_site_fract_y
 _atom_site_fract_z
 _atom_site_occupancy
  Sr  Sr0  1  0.86945913  0.70735096  0.85134737  1
  Nb  Nb1  1  0.32281914  0.13903737  0.37066298  1
  H  H2  1  0.92051149  0.84013454  0.36369245  1
  H  H3  1  0.87994228  0.29007851  0.51349980  1
  H  H4  1  0.91219437  0.22922737  0.15264688  1
  H  H5  1  0.36280268  0.18285394  0.72403870  1
  H  H6  1  0.36831663  0.74031315  0.14806709  1
  H  H7  1  0.38830228  0.68146916  0.51401272  1
