# generated using pymatgen
data_SrNbH6
_symmetry_space_group_name_H-M   'P 1'
_cell_length_a   3.35052487
_cell_length_b   5.38198772
_cell_length_c   5.75696315
_cell_angle_alpha   68.61320786
_cell_angle_beta   90.04520927
_cell_angle_gamma   90.00701670
_symmetry_Int_Tables_number   1
_chemical_formula_structural   SrNbH6
_chemical_formula_sum   'Sr1 Nb1 H6'
_cell_volume   96.66378460
_cell_formula_units_Z   1
loop_
 _symmetry_equiv_pos_site_id
 _symmetry_equiv_pos_as_xyz
  1  'x, y, z'
loop_
 _atom_site_type_symbol
 _atom_site_label
 _atom_site_symmetry_multiplicity
 _atom_site_fract_x
 _atom_site_fract_y
 _atom_site_fract_z
 _atom_site_occupancy
  Sr  Sr0  1  0.30107911  0.09065866  0.75990286  1
  Nb  Nb1  1  0.80131523  0.75423393  0.41173431  1
  H  H2  1  0.80072879  0.08538474  0.41942013  1
  H  H3  1  0.80123689  0.98546185  0.07517372  1
  H  H4  1  0.80096734  0.42500564  0.66991552  1
  H  H5  1  0.80195924  0.75975952  0.72563735  1
  H  H6  1  0.30154032  0.92472705  0.40067879  1
  H  H7  1  0.30131909  0.57737061  0.33551531  1
