# generated using pymatgen
data_Sr2NbH8
_symmetry_space_group_name_H-M   'P 1'
_cell_length_a   3.87685211
_cell_length_b   5.52132653
_cell_length_c   6.52113287
_cell_angle_alpha   69.96142849
_cell_angle_beta   78.96558267
_cell_angle_gamma   87.85614008
_symmetry_Int_Tables_number   1
_chemical_formula_structural   Sr2NbH8
_chemical_formula_sum   'Sr2 Nb1 H8'
_cell_volume   128.65242231
_cell_formula_units_Z   1
loop_
 _symmetry_equiv_pos_site_id
 _symmetry_equiv_pos_as_xyz
  1  'x, y, z'
loop_
 _atom_site_type_symbol
 _atom_site_label
 _atom_site_symmetry_multiplicity
 _atom_site_fract_x
 _atom_site_fract_y
 _atom_site_fract_z
 _atom_site_occupancy
  Sr  Sr0  1  0.79067299  0.56023092  0.70657685  1
  Sr  Sr1  1  0.19282609  0.85670929  0.09706974  1
  Nb  Nb2  1  0.61854244  0.24229675  0.34713493  1
  H  H3  1  0.39224135  0.47504584  0.46904554  1
  H  H4  1  0.91538003  0.45476241  0.38385758  1
  H  H5  1  0.60902583  0.89114068  0.39129920  1
  H  H6  1  0.66687062  0.55920440  0.11230412  1
  H  H7  1  0.60488420  0.10122668  0.66423536  1
  H  H8  1  0.09590980  0.13239840  0.33835260  1
  H  H9  1  0.68964367  0.17744430  0.07042163  1
  H  H10  1  0.24188697  0.64973433  0.84115843  1
