# generated using pymatgen
data_SrNbH13
_symmetry_space_group_name_H-M   'P 1'
_cell_length_a   5.31341356
_cell_length_b   5.50398893
_cell_length_c   5.28394762
_cell_angle_alpha   122.55027402
_cell_angle_beta   89.19254481
_cell_angle_gamma   90.87079964
_symmetry_Int_Tables_number   1
_chemical_formula_structural   SrNbH13
_chemical_formula_sum   'Sr1 Nb1 H13'
_cell_volume   130.23718647
_cell_formula_units_Z   1
loop_
 _symmetry_equiv_pos_site_id
 _symmetry_equiv_pos_as_xyz
  1  'x, y, z'
loop_
 _atom_site_type_symbol
 _atom_site_label
 _atom_site_symmetry_multiplicity
 _atom_site_fract_x
 _atom_site_fract_y
 _atom_site_fract_z
 _atom_site_occupancy
  Sr  Sr0  1  0.75821341  0.36028324  0.45453673  1
  Nb  Nb1  1  0.25722352  0.07171329  0.82126611  1
  H  H2  1  0.46542953  0.79419683  0.80214445  1
  H  H3  1  0.03457266  0.80435435  0.81708456  1
  H  H4  1  0.82188366  0.76643347  0.12023989  1
  H  H5  1  0.69203392  0.76271874  0.17898212  1
  H  H6  1  0.29472565  0.71849584  0.41673775  1
  H  H7  1  0.17719344  0.80600491  0.40169718  1
  H  H8  1  0.26581331  0.32635719  0.67087241  1
  H  H9  1  0.26613932  0.44555901  0.85624977  1
  H  H10  1  0.55110879  0.06536203  0.63998789  1
  H  H11  1  0.97242464  0.06188884  0.63615599  1
  H  H12  1  0.47216998  0.36201004  0.08124461  1
  H  H13  1  0.02892336  0.34773193  0.06390716  1
  H  H14  1  0.25038782  0.12195830  0.18980042  1
