# generated using pymatgen
data_SrNbH8
_symmetry_space_group_name_H-M   'P 1'
_cell_length_a   3.29811405
_cell_length_b   5.33976219
_cell_length_c   5.42428388
_cell_angle_alpha   103.56121326
_cell_angle_beta   89.27142733
_cell_angle_gamma   90.88180253
_symmetry_Int_Tables_number   1
_chemical_formula_structural   SrNbH8
_chemical_formula_sum   'Sr1 Nb1 H8'
_cell_volume   92.84945465
_cell_formula_units_Z   1
loop_
 _symmetry_equiv_pos_site_id
 _symmetry_equiv_pos_as_xyz
  1  'x, y, z'
loop_
 _atom_site_type_symbol
 _atom_site_label
 _atom_site_symmetry_multiplicity
 _atom_site_fract_x
 _atom_site_fract_y
 _atom_site_fract_z
 _atom_site_occupancy
  Sr  Sr0  1  0.27277083  0.87748177  0.56751369  1
  Nb  Nb1  1  0.78038640  0.31067010  0.13525954  1
  H  H2  1  0.28633158  0.52757335  0.17499261  1
  H  H3  1  0.77108407  0.51804567  0.47005013  1
  H  H4  1  0.28640035  0.31217627  0.91736505  1
  H  H5  1  0.27618564  0.15190521  0.23068070  1
  H  H6  1  0.77688532  0.07831044  0.36361904  1
  H  H7  1  0.79291079  0.64312935  0.10765844  1
  H  H8  1  0.79051643  0.38276144  0.82166203  1
  H  H9  1  0.77114460  0.98182038  0.90637078  1
