# generated using pymatgen
data_SrNb2H7
_symmetry_space_group_name_H-M   'P 1'
_cell_length_a   3.43750650
_cell_length_b   6.84077620
_cell_length_c   7.96205055
_cell_angle_alpha   77.73405250
_cell_angle_beta   77.70477495
_cell_angle_gamma   89.96478967
_symmetry_Int_Tables_number   1
_chemical_formula_structural   SrNb2H7
_chemical_formula_sum   'Sr2 Nb4 H14'
_cell_volume   178.56348205
_cell_formula_units_Z   2
loop_
 _symmetry_equiv_pos_site_id
 _symmetry_equiv_pos_as_xyz
  1  'x, y, z'
loop_
 _atom_site_type_symbol
 _atom_site_label
 _atom_site_symmetry_multiplicity
 _atom_site_fract_x
 _atom_site_fract_y
 _atom_site_fract_z
 _atom_site_occupancy
  Sr  Sr0  1  0.93452773  0.43949719  0.62727347  1
  Sr  Sr1  1  0.93421047  0.93939888  0.62732526  1
  Nb  Nb2  1  0.25288085  0.59852730  0.99021540  1
  Nb  Nb3  1  0.25287913  0.09808845  0.99026617  1
  Nb  Nb4  1  0.61639956  0.78041407  0.26484154  1
  Nb  Nb5  1  0.61641914  0.28020006  0.26497563  1
  H  H6  1  0.06394364  0.25281289  0.37254119  1
  H  H7  1  0.30870481  0.37508300  0.88071361  1
  H  H8  1  0.37073418  0.15739063  0.74946157  1
  H  H9  1  0.30830987  0.87539099  0.88067016  1
  H  H10  1  0.37098399  0.65749742  0.74919811  1
  H  H11  1  0.49926155  0.22129685  0.50507272  1
  H  H12  1  0.55393517  0.00068981  0.38418575  1
  H  H13  1  0.68629497  0.56453345  0.12668016  1
  H  H14  1  0.49934108  0.72135798  0.50474615  1
  H  H15  1  0.55430716  0.50115297  0.38413049  1
  H  H16  1  0.68626330  0.06411788  0.12655917  1
  H  H17  1  0.81143427  0.12906480  0.87090605  1
  H  H18  1  0.81162937  0.62877716  0.87074519  1
  H  H19  1  0.06402375  0.75299422  0.37225320  1
