# generated using pymatgen
data_Sr2NbH9
_symmetry_space_group_name_H-M   'P 1'
_cell_length_a   3.94944961
_cell_length_b   3.88202848
_cell_length_c   8.53624008
_cell_angle_alpha   103.50382774
_cell_angle_beta   77.19938241
_cell_angle_gamma   89.96132605
_symmetry_Int_Tables_number   1
_chemical_formula_structural   Sr2NbH9
_chemical_formula_sum   'Sr2 Nb1 H9'
_cell_volume   123.90592142
_cell_formula_units_Z   1
loop_
 _symmetry_equiv_pos_site_id
 _symmetry_equiv_pos_as_xyz
  1  'x, y, z'
loop_
 _atom_site_type_symbol
 _atom_site_label
 _atom_site_symmetry_multiplicity
 _atom_site_fract_x
 _atom_site_fract_y
 _atom_site_fract_z
 _atom_site_occupancy
  Sr  Sr0  1  0.07367553  0.91011685  0.99123437  1
  Sr  Sr1  1  0.74615780  0.22482258  0.63212425  1
  Nb  Nb2  1  0.48375429  0.52049848  0.30662797  1
  H  H3  1  0.65796140  0.81781003  0.81298998  1
  H  H4  1  0.16274024  0.31710467  0.80806890  1
  H  H5  1  0.31932493  0.29600534  0.46250636  1
  H  H6  1  0.76351624  0.62801003  0.44799805  1
  H  H7  1  0.75471135  0.15029961  0.30830848  1
  H  H8  1  0.35750869  0.06038788  0.22821310  1
  H  H9  1  0.26355978  0.79328680  0.51277389  1
  H  H10  1  0.55373486  0.43845703  0.06438086  1
  H  H11  1  0.96532190  0.54557969  0.21211079  1
