# generated using pymatgen
data_SrNbH6
_symmetry_space_group_name_H-M   'P 1'
_cell_length_a   4.10549963
_cell_length_b   6.43334720
_cell_length_c   3.36965060
_cell_angle_alpha   58.65495241
_cell_angle_beta   89.78617564
_cell_angle_gamma   91.66621278
_symmetry_Int_Tables_number   1
_chemical_formula_structural   SrNbH6
_chemical_formula_sum   'Sr1 Nb1 H6'
_cell_volume   75.95940994
_cell_formula_units_Z   1
loop_
 _symmetry_equiv_pos_site_id
 _symmetry_equiv_pos_as_xyz
  1  'x, y, z'
loop_
 _atom_site_type_symbol
 _atom_site_label
 _atom_site_symmetry_multiplicity
 _atom_site_fract_x
 _atom_site_fract_y
 _atom_site_fract_z
 _atom_site_occupancy
  Sr  Sr0  1  0.82275635  0.64376541  0.39564617  1
  Nb  Nb1  1  0.29028601  0.13240384  0.40360102  1
  H  H2  1  0.45038826  0.44891335  0.09180473  1
  H  H3  1  0.07259720  0.14549130  0.89438657  1
  H  H4  1  0.32806467  0.79676567  0.73182056  1
  H  H5  1  0.87133675  0.98830461  0.55179652  1
  H  H6  1  0.54674916  0.11814075  0.92218348  1
  H  H7  1  0.96125461  0.34255207  0.19635294  1
