# generated using pymatgen
data_SrNbH7
_symmetry_space_group_name_H-M   'P 1'
_cell_length_a   6.42828707
_cell_length_b   5.32335414
_cell_length_c   7.23865476
_cell_angle_alpha   75.62995162
_cell_angle_beta   130.04630615
_cell_angle_gamma   114.32499940
_symmetry_Int_Tables_number   1
_chemical_formula_structural   SrNbH7
_chemical_formula_sum   'Sr2 Nb2 H14'
_cell_volume   172.74123830
_cell_formula_units_Z   2
loop_
 _symmetry_equiv_pos_site_id
 _symmetry_equiv_pos_as_xyz
  1  'x, y, z'
loop_
 _atom_site_type_symbol
 _atom_site_label
 _atom_site_symmetry_multiplicity
 _atom_site_fract_x
 _atom_site_fract_y
 _atom_site_fract_z
 _atom_site_occupancy
  Sr  Sr0  1  0.42221614  0.02148175  0.20154015  1
  Sr  Sr1  1  0.88769747  0.47199751  0.73121629  1
  Nb  Nb2  1  0.15468639  0.09961373  0.51941877  1
  Nb  Nb3  1  0.66964717  0.79283150  0.95753665  1
  H  H4  1  0.02969424  0.84047207  0.28485915  1
  H  H5  1  0.64691042  0.85985790  0.68824582  1
  H  H6  1  0.22393843  0.77721976  0.64533372  1
  H  H7  1  0.82820921  0.82842663  0.44924874  1
  H  H8  1  0.15621419  0.01696266  0.77746203  1
  H  H9  1  0.92499412  0.66247983  0.01426759  1
  H  H10  1  0.69510516  0.47825997  0.12160853  1
  H  H11  1  0.37674634  0.30227322  0.40387641  1
  H  H12  1  0.38967597  0.45343290  0.71027443  1
  H  H13  1  0.41389658  0.64745510  0.04057424  1
  H  H14  1  0.81020890  0.09243095  0.16358907  1
  H  H15  1  0.92794841  0.23447020  0.50224832  1
  H  H16  1  0.53184413  0.13285529  0.78885684  1
  H  H17  1  0.96353473  0.08365605  0.98788825  1
