# generated using pymatgen
data_SrNb2H7
_symmetry_space_group_name_H-M   'P 1'
_cell_length_a   3.37443616
_cell_length_b   5.01767544
_cell_length_c   6.39081982
_cell_angle_alpha   101.44139796
_cell_angle_beta   90.10616814
_cell_angle_gamma   89.82339259
_symmetry_Int_Tables_number   1
_chemical_formula_structural   SrNb2H7
_chemical_formula_sum   'Sr1 Nb2 H7'
_cell_volume   106.05735382
_cell_formula_units_Z   1
loop_
 _symmetry_equiv_pos_site_id
 _symmetry_equiv_pos_as_xyz
  1  'x, y, z'
loop_
 _atom_site_type_symbol
 _atom_site_label
 _atom_site_symmetry_multiplicity
 _atom_site_fract_x
 _atom_site_fract_y
 _atom_site_fract_z
 _atom_site_occupancy
  Sr  Sr0  1  0.71661318  0.90555022  0.37455002  1
  Nb  Nb1  1  0.21394727  0.10572445  0.89658501  1
  Nb  Nb2  1  0.71344921  0.56795459  0.83784763  1
  H  H3  1  0.21346794  0.51519980  0.03481912  1
  H  H4  1  0.71040018  0.49163925  0.54609914  1
  H  H5  1  0.21519586  0.13464655  0.21172146  1
  H  H6  1  0.20965515  0.36535108  0.71376326  1
  H  H7  1  0.21698497  0.02522708  0.59710751  1
  H  H8  1  0.71439579  0.94455707  0.98607276  1
  H  H9  1  0.21258345  0.73065991  0.74583510  1
