# generated using pymatgen
data_Sr2NbH7
_symmetry_space_group_name_H-M   'P 1'
_cell_length_a   6.40303185
_cell_length_b   4.00180072
_cell_length_c   5.47565529
_cell_angle_alpha   91.23385654
_cell_angle_beta   112.88194350
_cell_angle_gamma   111.32665531
_symmetry_Int_Tables_number   1
_chemical_formula_structural   Sr2NbH7
_chemical_formula_sum   'Sr2 Nb1 H7'
_cell_volume   118.22321055
_cell_formula_units_Z   1
loop_
 _symmetry_equiv_pos_site_id
 _symmetry_equiv_pos_as_xyz
  1  'x, y, z'
loop_
 _atom_site_type_symbol
 _atom_site_label
 _atom_site_symmetry_multiplicity
 _atom_site_fract_x
 _atom_site_fract_y
 _atom_site_fract_z
 _atom_site_occupancy
  Sr  Sr0  1  0.95506698  0.03808780  0.53068327  1
  Sr  Sr1  1  0.56818398  0.28704292  0.87091752  1
  Nb  Nb2  1  0.25288729  0.63698691  0.16416449  1
  H  H3  1  0.32316901  0.65877000  0.86433757  1
  H  H4  1  0.20190181  0.10876124  0.03747370  1
  H  H5  1  0.52553766  0.05675698  0.39015494  1
  H  H6  1  0.55007911  0.60513131  0.23896176  1
  H  H7  1  0.97802257  0.53081222  0.27130409  1
  H  H8  1  0.35967264  0.53035750  0.50854045  1
  H  H9  1  0.95404295  0.50638814  0.82753621  1
