# generated using pymatgen
data_Sr2NbH9
_symmetry_space_group_name_H-M   'P 1'
_cell_length_a   4.20303083
_cell_length_b   5.94161335
_cell_length_c   5.88447110
_cell_angle_alpha   88.08515382
_cell_angle_beta   90.30461282
_cell_angle_gamma   90.19022854
_symmetry_Int_Tables_number   1
_chemical_formula_structural   Sr2NbH9
_chemical_formula_sum   'Sr2 Nb1 H9'
_cell_volume   146.86676575
_cell_formula_units_Z   1
loop_
 _symmetry_equiv_pos_site_id
 _symmetry_equiv_pos_as_xyz
  1  'x, y, z'
loop_
 _atom_site_type_symbol
 _atom_site_label
 _atom_site_symmetry_multiplicity
 _atom_site_fract_x
 _atom_site_fract_y
 _atom_site_fract_z
 _atom_site_occupancy
  Sr  Sr0  1  0.65762167  0.84625555  0.19104227  1
  Sr  Sr1  1  0.64585636  0.29875603  0.67418645  1
  Nb  Nb2  1  0.15415161  0.35939250  0.17059928  1
  H  H3  1  0.37685762  0.16352284  0.34869688  1
  H  H4  1  0.94631172  0.16362455  0.35893350  1
  H  H5  1  0.15030434  0.08342700  0.02623905  1
  H  H6  1  0.38535084  0.51378673  0.37491044  1
  H  H7  1  0.64743029  0.87777948  0.66916442  1
  H  H8  1  0.64815695  0.37157496  0.09379972  1
  H  H9  1  0.94936461  0.51474525  0.38709569  1
  H  H10  1  0.15527887  0.66269635  0.08815205  1
  H  H11  1  0.14540913  0.41144976  0.86200527  1
