# generated using pymatgen
data_SrNbH8
_symmetry_space_group_name_H-M   'P 1'
_cell_length_a   3.24263147
_cell_length_b   5.61052301
_cell_length_c   5.38507136
_cell_angle_alpha   74.93036487
_cell_angle_beta   89.99517546
_cell_angle_gamma   90.00233158
_symmetry_Int_Tables_number   1
_chemical_formula_structural   SrNbH8
_chemical_formula_sum   'Sr1 Nb1 H8'
_cell_volume   94.60071211
_cell_formula_units_Z   1
loop_
 _symmetry_equiv_pos_site_id
 _symmetry_equiv_pos_as_xyz
  1  'x, y, z'
loop_
 _atom_site_type_symbol
 _atom_site_label
 _atom_site_symmetry_multiplicity
 _atom_site_fract_x
 _atom_site_fract_y
 _atom_site_fract_z
 _atom_site_occupancy
  Sr  Sr0  1  0.48910970  0.44931892  0.62174316  1
  Nb  Nb1  1  0.98922965  0.04924187  0.24585578  1
  H  H2  1  0.98949780  0.69168774  0.90630303  1
  H  H3  1  0.48904818  0.92522957  0.45157850  1
  H  H4  1  0.98916028  0.16678677  0.52889440  1
  H  H5  1  0.98920928  0.70140661  0.33674112  1
  H  H6  1  0.98914424  0.30760286  0.95035419  1
  H  H7  1  0.48928372  0.98619671  0.05459886  1
  H  H8  1  0.48894716  0.26258992  0.22927200  1
  H  H9  1  0.98952598  0.78779802  0.77507995  1
