# generated using pymatgen
data_Sr2NbH7
_symmetry_space_group_name_H-M   'P 1'
_cell_length_a   3.74307145
_cell_length_b   5.39700914
_cell_length_c   6.45394340
_cell_angle_alpha   65.30774630
_cell_angle_beta   73.67648692
_cell_angle_gamma   90.03868720
_symmetry_Int_Tables_number   1
_chemical_formula_structural   Sr2NbH7
_chemical_formula_sum   'Sr2 Nb1 H7'
_cell_volume   112.63504307
_cell_formula_units_Z   1
loop_
 _symmetry_equiv_pos_site_id
 _symmetry_equiv_pos_as_xyz
  1  'x, y, z'
loop_
 _atom_site_type_symbol
 _atom_site_label
 _atom_site_symmetry_multiplicity
 _atom_site_fract_x
 _atom_site_fract_y
 _atom_site_fract_z
 _atom_site_occupancy
  Sr  Sr0  1  0.32135060  0.33226830  0.95809465  1
  Sr  Sr1  1  0.62464343  0.64520279  0.33216019  1
  Nb  Nb2  1  0.97344990  0.95479609  0.64483878  1
  H  H3  1  0.82711630  0.63962639  0.95190907  1
  H  H4  1  0.84045828  0.05944697  0.91883336  1
  H  H5  1  0.97250998  0.61038390  0.64524588  1
  H  H6  1  0.47235325  0.15054627  0.64517612  1
  H  H7  1  0.47273070  0.80482741  0.64506622  1
  H  H8  1  0.10487175  0.33311042  0.37131736  1
  H  H9  1  0.11989680  0.94618146  0.33853936  1
