# generated using pymatgen
data_Sr2NbH8
_symmetry_space_group_name_H-M   'P 1'
_cell_length_a   3.67161917
_cell_length_b   6.09238628
_cell_length_c   6.09169671
_cell_angle_alpha   93.56820369
_cell_angle_beta   89.83522233
_cell_angle_gamma   89.83911680
_symmetry_Int_Tables_number   1
_chemical_formula_structural   Sr2NbH8
_chemical_formula_sum   'Sr2 Nb1 H8'
_cell_volume   135.99935871
_cell_formula_units_Z   1
loop_
 _symmetry_equiv_pos_site_id
 _symmetry_equiv_pos_as_xyz
  1  'x, y, z'
loop_
 _atom_site_type_symbol
 _atom_site_label
 _atom_site_symmetry_multiplicity
 _atom_site_fract_x
 _atom_site_fract_y
 _atom_site_fract_z
 _atom_site_occupancy
  Sr  Sr0  1  0.56001467  0.85220655  0.13648173  1
  Sr  Sr1  1  0.56014045  0.42837249  0.56041270  1
  Nb  Nb2  1  0.09151726  0.33950229  0.04774483  1
  H  H3  1  0.05299617  0.27037244  0.75054321  1
  H  H4  1  0.05295265  0.04242768  0.97883652  1
  H  H5  1  0.07808206  0.60788528  0.90366555  1
  H  H6  1  0.07798113  0.19586747  0.31621136  1
  H  H7  1  0.58126638  0.81614021  0.52427465  1
  H  H8  1  0.53516759  0.44886132  0.15698133  1
  H  H9  1  0.52555725  0.22188411  0.93006345  1
  H  H10  1  0.04453441  0.56770116  0.27563766  1
