# generated using pymatgen
data_Sr2NbH8
_symmetry_space_group_name_H-M   'P 1'
_cell_length_a   3.84409857
_cell_length_b   5.43992614
_cell_length_c   6.50859294
_cell_angle_alpha   113.80630807
_cell_angle_beta   108.90635125
_cell_angle_gamma   91.48095866
_symmetry_Int_Tables_number   1
_chemical_formula_structural   Sr2NbH8
_chemical_formula_sum   'Sr2 Nb1 H8'
_cell_volume   115.86148219
_cell_formula_units_Z   1
loop_
 _symmetry_equiv_pos_site_id
 _symmetry_equiv_pos_as_xyz
  1  'x, y, z'
loop_
 _atom_site_type_symbol
 _atom_site_label
 _atom_site_symmetry_multiplicity
 _atom_site_fract_x
 _atom_site_fract_y
 _atom_site_fract_z
 _atom_site_occupancy
  Sr  Sr0  1  0.63228680  0.93015477  0.59854522  1
  Sr  Sr1  1  0.90759494  0.24536433  0.22487422  1
  Nb  Nb2  1  0.20106905  0.60507908  0.89284602  1
  H  H3  1  0.77125777  0.76280857  0.94742025  1
  H  H4  1  0.75821880  0.46939549  0.62913856  1
  H  H5  1  0.18214902  0.62781170  0.60557738  1
  H  H6  1  0.83730855  0.38442439  0.90904093  1
  H  H7  1  0.24421353  0.95734192  0.89956873  1
  H  H8  1  0.38423900  0.93344598  0.20907755  1
  H  H9  1  0.16782790  0.23905553  0.64108566  1
  H  H10  1  0.40508063  0.51933524  0.17930348  1
