# generated using pymatgen
data_SrNbH7
_symmetry_space_group_name_H-M   'P 1'
_cell_length_a   3.83630094
_cell_length_b   5.43564270
_cell_length_c   3.72271602
_cell_angle_alpha   87.95756116
_cell_angle_beta   88.90161083
_cell_angle_gamma   91.00154060
_symmetry_Int_Tables_number   1
_chemical_formula_structural   SrNbH7
_chemical_formula_sum   'Sr1 Nb1 H7'
_cell_volume   77.55252034
_cell_formula_units_Z   1
loop_
 _symmetry_equiv_pos_site_id
 _symmetry_equiv_pos_as_xyz
  1  'x, y, z'
loop_
 _atom_site_type_symbol
 _atom_site_label
 _atom_site_symmetry_multiplicity
 _atom_site_fract_x
 _atom_site_fract_y
 _atom_site_fract_z
 _atom_site_occupancy
  Sr  Sr0  1  0.67994565  0.21599395  0.73653301  1
  Nb  Nb1  1  0.27870708  0.70751746  0.27972035  1
  H  H2  1  0.62365421  0.93458294  0.25079407  1
  H  H3  1  0.72937215  0.57110755  0.21525233  1
  H  H4  1  0.15883103  0.92996475  0.59579135  1
  H  H5  1  0.23852180  0.36610733  0.24528477  1
  H  H6  1  0.14401920  0.00134702  0.10233506  1
  H  H7  1  0.54270849  0.71414114  0.68161632  1
  H  H8  1  0.10351338  0.56778486  0.70232974  1
