# generated using pymatgen
data_Sr2Nb2H11
_symmetry_space_group_name_H-M   'P 1'
_cell_length_a   3.68091927
_cell_length_b   5.83215022
_cell_length_c   6.60383904
_cell_angle_alpha   89.71351788
_cell_angle_beta   90.35209038
_cell_angle_gamma   89.82563880
_symmetry_Int_Tables_number   1
_chemical_formula_structural   Sr2Nb2H11
_chemical_formula_sum   'Sr2 Nb2 H11'
_cell_volume   141.76394571
_cell_formula_units_Z   1
loop_
 _symmetry_equiv_pos_site_id
 _symmetry_equiv_pos_as_xyz
  1  'x, y, z'
loop_
 _atom_site_type_symbol
 _atom_site_label
 _atom_site_symmetry_multiplicity
 _atom_site_fract_x
 _atom_site_fract_y
 _atom_site_fract_z
 _atom_site_occupancy
  Sr  Sr0  1  0.50277012  0.36167223  0.67036975  1
  Sr  Sr1  1  0.50144128  0.86047958  0.33941880  1
  Nb  Nb2  1  0.03139077  0.35401502  0.14465955  1
  Nb  Nb3  1  0.01487768  0.85779683  0.86666424  1
  H  H4  1  0.99164758  0.51846479  0.87349842  1
  H  H5  1  0.47273205  0.42032324  0.03062083  1
  H  H6  1  0.27531222  0.08497660  0.01650536  1
  H  H7  1  0.46123146  0.28833883  0.28426069  1
  H  H8  1  0.77361411  0.09021417  0.01146707  1
  H  H9  1  0.01001397  0.08978581  0.67275588  1
  H  H10  1  0.51295911  0.78644123  0.80184375  1
  H  H11  1  0.00539338  0.69490980  0.13503887  1
  H  H12  1  0.98110028  0.13709636  0.34692403  1
  H  H13  1  0.99634248  0.48673044  0.39680441  1
  H  H14  1  0.00830552  0.73795907  0.60737835  1
