# generated using pymatgen
data_Sr(NbH4)2
_symmetry_space_group_name_H-M   'P 1'
_cell_length_a   3.36264426
_cell_length_b   4.99374793
_cell_length_c   6.51152604
_cell_angle_alpha   104.18616899
_cell_angle_beta   81.63830935
_cell_angle_gamma   95.35691154
_symmetry_Int_Tables_number   1
_chemical_formula_structural   Sr(NbH4)2
_chemical_formula_sum   'Sr1 Nb2 H8'
_cell_volume   104.69141385
_cell_formula_units_Z   1
loop_
 _symmetry_equiv_pos_site_id
 _symmetry_equiv_pos_as_xyz
  1  'x, y, z'
loop_
 _atom_site_type_symbol
 _atom_site_label
 _atom_site_symmetry_multiplicity
 _atom_site_fract_x
 _atom_site_fract_y
 _atom_site_fract_z
 _atom_site_occupancy
  Sr  Sr0  1  0.11920515  0.59316312  0.29591627  1
  Nb  Nb1  1  0.74314351  0.84720924  0.85596217  1
  Nb  Nb2  1  0.42242072  0.24644502  0.66760096  1
  H  H3  1  0.25952138  0.05689022  0.97319224  1
  H  H4  1  0.23023915  0.62373389  0.87074455  1
  H  H5  1  0.85570426  0.22437135  0.83496390  1
  H  H6  1  0.51688009  0.25040315  0.37937199  1
  H  H7  1  0.70222849  0.57449116  0.61294658  1
  H  H8  1  0.56664983  0.88693439  0.55274822  1
  H  H9  1  0.96234351  0.21731784  0.51155378  1
  H  H10  1  0.69148992  0.78858962  0.12962534  1
