# generated using pymatgen
data_SrNbH13
_symmetry_space_group_name_H-M   'P 1'
_cell_length_a   5.77121002
_cell_length_b   5.29374566
_cell_length_c   5.29771801
_cell_angle_alpha   85.83407404
_cell_angle_beta   62.49636269
_cell_angle_gamma   79.29285267
_symmetry_Int_Tables_number   1
_chemical_formula_structural   SrNbH13
_chemical_formula_sum   'Sr1 Nb1 H13'
_cell_volume   141.04447201
_cell_formula_units_Z   1
loop_
 _symmetry_equiv_pos_site_id
 _symmetry_equiv_pos_as_xyz
  1  'x, y, z'
loop_
 _atom_site_type_symbol
 _atom_site_label
 _atom_site_symmetry_multiplicity
 _atom_site_fract_x
 _atom_site_fract_y
 _atom_site_fract_z
 _atom_site_occupancy
  Sr  Sr0  1  0.82285950  0.69871369  0.48470003  1
  Nb  Nb1  1  0.56481280  0.25082224  0.06564627  1
  H  H2  1  0.26985857  0.15593075  0.00653913  1
  H  H3  1  0.85654644  0.05472233  0.09189926  1
  H  H4  1  0.11351235  0.81318231  0.73893901  1
  H  H5  1  0.85120764  0.40058278  0.88240386  1
  H  H6  1  0.62241619  0.42559629  0.30885838  1
  H  H7  1  0.55862134  0.91238333  0.03777364  1
  H  H8  1  0.48186453  0.52619617  0.87694424  1
  H  H9  1  0.20818990  0.70054840  0.63963024  1
  H  H10  1  0.25870342  0.46347435  0.30072422  1
  H  H11  1  0.45987251  0.17298755  0.46730626  1
  H  H12  1  0.29962815  0.29054890  0.92256525  1
  H  H13  1  0.38396928  0.07376088  0.43312368  1
  H  H14  1  0.75742839  0.15694504  0.68292052  1
