# generated using pymatgen
data_SrNbH10
_symmetry_space_group_name_H-M   'P 1'
_cell_length_a   3.51282167
_cell_length_b   5.61907295
_cell_length_c   6.02822837
_cell_angle_alpha   103.87897446
_cell_angle_beta   106.20025702
_cell_angle_gamma   91.06808571
_symmetry_Int_Tables_number   1
_chemical_formula_structural   SrNbH10
_chemical_formula_sum   'Sr1 Nb1 H10'
_cell_volume   110.46096600
_cell_formula_units_Z   1
loop_
 _symmetry_equiv_pos_site_id
 _symmetry_equiv_pos_as_xyz
  1  'x, y, z'
loop_
 _atom_site_type_symbol
 _atom_site_label
 _atom_site_symmetry_multiplicity
 _atom_site_fract_x
 _atom_site_fract_y
 _atom_site_fract_z
 _atom_site_occupancy
  Sr  Sr0  1  0.77894193  0.06036067  0.41228949  1
  Nb  Nb1  1  0.39286054  0.68272226  0.70885568  1
  H  H2  1  0.42857330  0.52639457  -0.01305548  1
  H  H3  1  0.55827626  0.92319261  0.99005155  1
  H  H4  1  0.65679947  0.52874834  0.98191682  1
  H  H5  1  0.24322516  0.69938332  0.39177209  1
  H  H6  1  0.40653706  -0.00652876  0.67532666  1
  H  H7  1  0.35364657  0.34652534  0.53851347  1
  H  H8  1  0.14593677  0.29843227  0.15604027  1
  H  H9  1  0.10147722  0.18115517  0.05511176  1
  H  H10  1  0.94446619  0.84466574  0.71878783  1
  H  H11  1  0.94151552  0.49822246  0.69956086  1
