# generated using pymatgen
data_Sr(NbH4)2
_symmetry_space_group_name_H-M   'P 1'
_cell_length_a   3.63685639
_cell_length_b   5.65254582
_cell_length_c   5.54464624
_cell_angle_alpha   88.62906329
_cell_angle_beta   109.14503132
_cell_angle_gamma   89.91418402
_symmetry_Int_Tables_number   1
_chemical_formula_structural   Sr(NbH4)2
_chemical_formula_sum   'Sr1 Nb2 H8'
_cell_volume   107.64366542
_cell_formula_units_Z   1
loop_
 _symmetry_equiv_pos_site_id
 _symmetry_equiv_pos_as_xyz
  1  'x, y, z'
loop_
 _atom_site_type_symbol
 _atom_site_label
 _atom_site_symmetry_multiplicity
 _atom_site_fract_x
 _atom_site_fract_y
 _atom_site_fract_z
 _atom_site_occupancy
  Sr  Sr0  1  0.81697510  0.73718333  0.97924559  1
  Nb  Nb1  1  0.15928649  0.29699525  0.66328118  1
  Nb  Nb2  1  0.47462682  0.17740442  0.29507537  1
  H  H3  1  0.62623585  0.43139117  0.59747819  1
  H  H4  1  0.64993059  0.07851835  0.64848955  1
  H  H5  1  0.47111756  0.85058828  0.28745171  1
  H  H6  1  0.00773116  0.04301501  0.36116280  1
  H  H7  1  0.33302621  0.41826996  0.00912763  1
  H  H8  1  0.98379901  0.39583663  0.30986087  1
  H  H9  1  0.16274959  0.62386325  0.67089430  1
  H  H10  1  0.30092861  0.05607735  0.94942380  1
