# generated using pymatgen
data_Sr2NbH7
_symmetry_space_group_name_H-M   'P 1'
_cell_length_a   6.13894608
_cell_length_b   6.17246950
_cell_length_c   4.35837448
_cell_angle_alpha   67.83474614
_cell_angle_beta   68.75372676
_cell_angle_gamma   101.18708810
_symmetry_Int_Tables_number   1
_chemical_formula_structural   Sr2NbH7
_chemical_formula_sum   'Sr2 Nb1 H7'
_cell_volume   131.67003826
_cell_formula_units_Z   1
loop_
 _symmetry_equiv_pos_site_id
 _symmetry_equiv_pos_as_xyz
  1  'x, y, z'
loop_
 _atom_site_type_symbol
 _atom_site_label
 _atom_site_symmetry_multiplicity
 _atom_site_fract_x
 _atom_site_fract_y
 _atom_site_fract_z
 _atom_site_occupancy
  Sr  Sr0  1  0.26617235  0.70185424  0.40819118  1
  Sr  Sr1  1  0.84711044  0.11931260  0.41688645  1
  Nb  Nb2  1  0.55457204  0.40770865  0.87924750  1
  H  H3  1  0.85896252  0.49232807  0.47569660  1
  H  H4  1  0.27600602  0.51414738  0.99727032  1
  H  H5  1  0.64165253  0.71505085  0.47190582  1
  H  H6  1  0.80404811  0.64831039  0.86572080  1
  H  H7  1  0.65876985  0.12788368  0.00342037  1
  H  H8  1  0.47556176  0.32896950  0.46539695  1
  H  H9  1  0.25739538  0.11167263  0.21131500  1
