# generated using pymatgen
data_Sr2NbH12
_symmetry_space_group_name_H-M   'P 1'
_cell_length_a   3.80453629
_cell_length_b   5.30912606
_cell_length_c   8.09402080
_cell_angle_alpha   90.15912790
_cell_angle_beta   105.15830125
_cell_angle_gamma   90.85310507
_symmetry_Int_Tables_number   1
_chemical_formula_structural   Sr2NbH12
_chemical_formula_sum   'Sr2 Nb1 H12'
_cell_volume   157.77967462
_cell_formula_units_Z   1
loop_
 _symmetry_equiv_pos_site_id
 _symmetry_equiv_pos_as_xyz
  1  'x, y, z'
loop_
 _atom_site_type_symbol
 _atom_site_label
 _atom_site_symmetry_multiplicity
 _atom_site_fract_x
 _atom_site_fract_y
 _atom_site_fract_z
 _atom_site_occupancy
  Sr  Sr0  1  0.77359761  0.80929456  0.60129563  1
  Sr  Sr1  1  0.52941632  0.72649243  0.11252286  1
  Nb  Nb2  1  0.16303591  0.23899128  0.34922940  1
  H  H3  1  0.28132440  0.16423397  0.94015265  1
  H  H4  1  0.39333430  0.15009768  0.87627232  1
  H  H5  1  0.05419736  0.02330182  0.15925963  1
  H  H6  1  0.91031052  0.75502375  0.90394908  1
  H  H7  1  0.36074128  0.21865961  0.59627126  1
  H  H8  1  0.31279427  0.49724296  0.69580308  1
  H  H9  1  0.34602645  0.60061629  0.76813176  1
  H  H10  1  0.03978760  0.42092536  0.14080889  1
  H  H11  1  0.64539090  0.12197880  0.32540465  1
  H  H12  1  0.18168421  0.90563258  0.42029936  1
  H  H13  1  0.44092240  0.52409305  0.38906399  1
  H  H14  1  0.95779847  0.52536185  0.40369943  1
