# generated using pymatgen
data_SrNb2H9
_symmetry_space_group_name_H-M   'P 1'
_cell_length_a   3.40465977
_cell_length_b   3.69626619
_cell_length_c   8.08089606
_cell_angle_alpha   103.50752875
_cell_angle_beta   101.97707521
_cell_angle_gamma   90.33670236
_symmetry_Int_Tables_number   1
_chemical_formula_structural   SrNb2H9
_chemical_formula_sum   'Sr1 Nb2 H9'
_cell_volume   96.57072716
_cell_formula_units_Z   1
loop_
 _symmetry_equiv_pos_site_id
 _symmetry_equiv_pos_as_xyz
  1  'x, y, z'
loop_
 _atom_site_type_symbol
 _atom_site_label
 _atom_site_symmetry_multiplicity
 _atom_site_fract_x
 _atom_site_fract_y
 _atom_site_fract_z
 _atom_site_occupancy
  Sr  Sr0  1  0.83734175  0.74372239  0.61395420  1
  Nb  Nb1  1  0.15571321  0.07115792  0.25742443  1
  Nb  Nb2  1  0.52107326  0.38504922  0.97746075  1
  H  H3  1  0.47305420  0.81955616  0.87362631  1
  H  H4  1  0.04457635  0.10577559  0.01257954  1
  H  H5  1  0.08825285  0.62039012  0.08804770  1
  H  H6  1  0.63900625  0.32664272  0.21809831  1
  H  H7  1  0.27485107  0.22248522  0.49902781  1
  H  H8  1  0.69990995  0.96111743  0.34750393  1
  H  H9  1  0.20826777  0.65509807  0.36497383  1
  H  H10  1  0.96461725  0.40900787  0.85452292  1
  H  H11  1  0.40489307  0.23637628  0.73787726  1
