# generated using pymatgen
data_Sr2NbH9
_symmetry_space_group_name_H-M   'P 1'
_cell_length_a   3.90179487
_cell_length_b   6.00408164
_cell_length_c   8.48929988
_cell_angle_alpha   127.32329623
_cell_angle_beta   72.59008823
_cell_angle_gamma   83.47108086
_symmetry_Int_Tables_number   1
_chemical_formula_structural   Sr2NbH9
_chemical_formula_sum   'Sr2 Nb1 H9'
_cell_volume   139.02548841
_cell_formula_units_Z   1
loop_
 _symmetry_equiv_pos_site_id
 _symmetry_equiv_pos_as_xyz
  1  'x, y, z'
loop_
 _atom_site_type_symbol
 _atom_site_label
 _atom_site_symmetry_multiplicity
 _atom_site_fract_x
 _atom_site_fract_y
 _atom_site_fract_z
 _atom_site_occupancy
  Sr  Sr0  1  0.63940203  0.38407996  0.30656241  1
  Sr  Sr1  1  0.09258929  0.45085598  0.83892924  1
  Nb  Nb2  1  0.16663203  0.91340641  0.33448119  1
  H  H3  1  0.06022711  0.33746173  0.49232858  1
  H  H4  1  0.34894480  0.92050523  0.51087133  1
  H  H5  1  0.64647541  0.90585853  0.72522146  1
  H  H6  1  0.50413046  0.90735260  0.81132867  1
  H  H7  1  0.32958691  0.91172299  0.08770615  1
  H  H8  1  0.70052383  0.91145839  0.26125511  1
  H  H9  1  0.77353213  0.16790177  0.62839025  1
  H  H10  1  0.02577813  0.67385318  0.39091355  1
  H  H11  1  0.46445987  0.48450724  0.06919106  1
