# generated using pymatgen
data_SrNbH8
_symmetry_space_group_name_H-M   'P 1'
_cell_length_a   3.76139646
_cell_length_b   4.08623080
_cell_length_c   6.59357373
_cell_angle_alpha   90.75220684
_cell_angle_beta   88.63558077
_cell_angle_gamma   58.37517332
_symmetry_Int_Tables_number   1
_chemical_formula_structural   SrNbH8
_chemical_formula_sum   'Sr1 Nb1 H8'
_cell_volume   86.22984117
_cell_formula_units_Z   1
loop_
 _symmetry_equiv_pos_site_id
 _symmetry_equiv_pos_as_xyz
  1  'x, y, z'
loop_
 _atom_site_type_symbol
 _atom_site_label
 _atom_site_symmetry_multiplicity
 _atom_site_fract_x
 _atom_site_fract_y
 _atom_site_fract_z
 _atom_site_occupancy
  Sr  Sr0  1  0.53301796  0.65073248  0.31800407  1
  Nb  Nb1  1  0.89385841  0.97070268  0.85064741  1
  H  H2  1  0.87281262  0.97453491  0.13639174  1
  H  H3  1  0.42289636  0.95638898  0.94822141  1
  H  H4  1  0.89824714  0.39472677  0.70006262  1
  H  H5  1  0.95971979  0.20611517  0.61460538  1
  H  H6  1  0.17481194  0.66195538  0.63520986  1
  H  H7  1  0.35031639  0.48377873  0.93860000  1
  H  H8  1  0.22550496  0.29596892  0.36262315  1
  H  H9  1  0.57820444  0.01312398  0.64185036  1
