# generated using pymatgen
data_Sr2NbH8
_symmetry_space_group_name_H-M   'P 1'
_cell_length_a   3.77603370
_cell_length_b   5.82109237
_cell_length_c   6.82008134
_cell_angle_alpha   87.30091052
_cell_angle_beta   105.48721119
_cell_angle_gamma   90.40765345
_symmetry_Int_Tables_number   1
_chemical_formula_structural   Sr2NbH8
_chemical_formula_sum   'Sr2 Nb1 H8'
_cell_volume   144.30395901
_cell_formula_units_Z   1
loop_
 _symmetry_equiv_pos_site_id
 _symmetry_equiv_pos_as_xyz
  1  'x, y, z'
loop_
 _atom_site_type_symbol
 _atom_site_label
 _atom_site_symmetry_multiplicity
 _atom_site_fract_x
 _atom_site_fract_y
 _atom_site_fract_z
 _atom_site_occupancy
  Sr  Sr0  1  0.61001608  0.56385460  0.11563895  1
  Sr  Sr1  1  0.89074945  0.19163368  0.69164500  1
  Nb  Nb2  1  0.33605234  0.71086037  0.56102546  1
  H  H3  1  0.62409940  0.52384536  0.46867157  1
  H  H4  1  0.13037243  0.44956729  0.43352721  1
  H  H5  1  0.06696525  0.32082226  0.03533693  1
  H  H6  1  0.29776358  0.02553614  0.50039863  1
  H  H7  1  0.43782966  0.86893070  0.81213998  1
  H  H8  1  0.19346151  0.77806596  0.27811346  1
  H  H9  1  0.84169120  0.78674631  0.62501540  1
  H  H10  1  0.42572010  0.46225932  0.75796040  1
