# generated using pymatgen
data_Sr2NbH10
_symmetry_space_group_name_H-M   'P 1'
_cell_length_a   5.16502218
_cell_length_b   5.17221508
_cell_length_c   6.27831752
_cell_angle_alpha   66.29308957
_cell_angle_beta   81.94630395
_cell_angle_gamma   87.17595819
_symmetry_Int_Tables_number   1
_chemical_formula_structural   Sr2NbH10
_chemical_formula_sum   'Sr2 Nb1 H10'
_cell_volume   152.05010660
_cell_formula_units_Z   1
loop_
 _symmetry_equiv_pos_site_id
 _symmetry_equiv_pos_as_xyz
  1  'x, y, z'
loop_
 _atom_site_type_symbol
 _atom_site_label
 _atom_site_symmetry_multiplicity
 _atom_site_fract_x
 _atom_site_fract_y
 _atom_site_fract_z
 _atom_site_occupancy
  Sr  Sr0  1  0.06067296  0.09802347  0.27703941  1
  Sr  Sr1  1  0.60420604  0.37115941  0.72640614  1
  Nb  Nb2  1  0.60885188  0.67310615  0.11547984  1
  H  H3  1  0.13837064  0.23907189  0.62194217  1
  H  H4  1  0.09257073  0.10865617  0.73365107  1
  H  H5  1  0.85768367  0.47659282  0.98709718  1
  H  H6  1  0.36475055  0.95989642  0.01188739  1
  H  H7  1  0.81594942  -0.00620959  0.02540437  1
  H  H8  1  0.65728663  0.84574666  0.78054744  1
  H  H9  1  0.40841093  0.71062552  0.38419780  1
  H  H10  1  0.35688615  0.50042686  0.02243857  1
  H  H11  1  0.86774846  0.59144005  0.32399549  1
  H  H12  1  0.56311495  0.29785018  0.34422813  1
