# generated using pymatgen
data_Sr2NbH12
_symmetry_space_group_name_H-M   'P 1'
_cell_length_a   3.85126779
_cell_length_b   5.47813857
_cell_length_c   7.50873642
_cell_angle_alpha   72.62632841
_cell_angle_beta   74.65658358
_cell_angle_gamma   89.60114070
_symmetry_Int_Tables_number   1
_chemical_formula_structural   Sr2NbH12
_chemical_formula_sum   'Sr2 Nb1 H12'
_cell_volume   145.35396975
_cell_formula_units_Z   1
loop_
 _symmetry_equiv_pos_site_id
 _symmetry_equiv_pos_as_xyz
  1  'x, y, z'
loop_
 _atom_site_type_symbol
 _atom_site_label
 _atom_site_symmetry_multiplicity
 _atom_site_fract_x
 _atom_site_fract_y
 _atom_site_fract_z
 _atom_site_occupancy
  Sr  Sr0  1  0.72480075  0.02632867  0.86978878  1
  Sr  Sr1  1  0.97636636  0.15777568  0.33995126  1
  Nb  Nb2  1  0.31660858  0.59158737  0.69256884  1
  H  H3  1  0.49760997  0.56278199  0.22426416  1
  H  H4  1  0.54707400  0.50161994  0.14397863  1
  H  H5  1  0.16269888  0.35768399  0.59891210  1
  H  H6  1  0.64005350  0.39906194  0.58844716  1
  H  H7  1  0.04321041  0.78368899  0.18388124  1
  H  H8  1  0.88916707  0.74384047  0.27818964  1
  H  H9  1  0.20064292  0.28388400  0.91086007  1
  H  H10  1  0.77374874  0.62551624  0.75907792  1
  H  H11  1  0.20135957  0.70175551  0.91475484  1
  H  H12  1  0.35151321  0.95039831  0.61718669  1
  H  H13  1  0.55988663  0.11499762  0.16966664  1
  H  H14  1  0.39034740  0.73632728  0.43038903  1
