# generated using pymatgen
data_SrNb6H17
_symmetry_space_group_name_H-M   'P 1'
_cell_length_a   6.76028742
_cell_length_b   6.17020329
_cell_length_c   6.65849725
_cell_angle_alpha   84.46062225
_cell_angle_beta   120.37251953
_cell_angle_gamma   118.58824625
_symmetry_Int_Tables_number   1
_chemical_formula_structural   SrNb6H17
_chemical_formula_sum   'Sr1 Nb6 H17'
_cell_volume   206.49608035
_cell_formula_units_Z   1
loop_
 _symmetry_equiv_pos_site_id
 _symmetry_equiv_pos_as_xyz
  1  'x, y, z'
loop_
 _atom_site_type_symbol
 _atom_site_label
 _atom_site_symmetry_multiplicity
 _atom_site_fract_x
 _atom_site_fract_y
 _atom_site_fract_z
 _atom_site_occupancy
  Sr  Sr0  1  0.03561070  0.06088689  0.00333259  1
  Nb  Nb1  1  0.53131469  0.07249024  0.48849098  1
  Nb  Nb2  1  0.02745302  0.04756697  0.50372546  1
  Nb  Nb3  1  0.05540298  0.56576853  0.55768896  1
  Nb  Nb4  1  0.54012276  0.54271889  0.54243007  1
  Nb  Nb5  1  0.51565587  0.56456352  0.03024590  1
  Nb  Nb6  1  0.57258388  0.13538971  0.99897478  1
  H  H7  1  0.32782244  0.76988931  0.87812121  1
  H  H8  1  0.37075712  0.95386047  0.16048839  1
  H  H9  1  0.76407985  0.93714995  0.16024656  1
  H  H10  1  0.14340525  0.86921291  0.40097771  1
  H  H11  1  0.28706510  0.20755745  0.40319521  1
  H  H12  1  0.72311208  0.64708089  0.88285832  1
  H  H13  1  0.89541030  0.32871630  0.04631021  1
  H  H14  1  0.61240167  0.00416949  0.79049418  1
  H  H15  1  0.76492581  0.92129027  0.59921603  1
  H  H16  1  0.33803130  0.51945008  0.20455200  1
  H  H17  1  0.29767841  0.68341084  0.42710785  1
  H  H18  1  0.77477994  0.67658527  0.40728870  1
  H  H19  1  0.80212680  0.47976784  0.17854187  1
  H  H20  1  0.79571465  0.41595040  0.67329687  1
  H  H21  1  0.29754316  0.41900024  0.66947684  1
  H  H22  1  0.14304479  0.43658550  0.85155066  1
  H  H23  1  0.79429443  0.20221306  0.38282266  1
