# generated using pymatgen
data_Sr2NbH9
_symmetry_space_group_name_H-M   'P 1'
_cell_length_a   5.50826321
_cell_length_b   6.38770356
_cell_length_c   4.59511539
_cell_angle_alpha   108.91107045
_cell_angle_beta   90.01754774
_cell_angle_gamma   89.93258100
_symmetry_Int_Tables_number   1
_chemical_formula_structural   Sr2NbH9
_chemical_formula_sum   'Sr2 Nb1 H9'
_cell_volume   152.95269747
_cell_formula_units_Z   1
loop_
 _symmetry_equiv_pos_site_id
 _symmetry_equiv_pos_as_xyz
  1  'x, y, z'
loop_
 _atom_site_type_symbol
 _atom_site_label
 _atom_site_symmetry_multiplicity
 _atom_site_fract_x
 _atom_site_fract_y
 _atom_site_fract_z
 _atom_site_occupancy
  Sr  Sr0  1  0.92618723  0.31025035  0.25140517  1
  Sr  Sr1  1  0.42634274  0.77845786  0.00862758  1
  Nb  Nb2  1  0.42572358  0.18663112  0.69698369  1
  H  H3  1  0.66483046  0.05984650  0.87207161  1
  H  H4  1  0.67061840  0.41992070  0.80467836  1
  H  H5  1  0.92654143  0.70324716  0.09613236  1
  H  H6  1  0.92442546  0.80491516  0.23852313  1
  H  H7  1  0.19583051  0.06679805  0.39874170  1
  H  H8  1  0.42626708  0.88256701  0.55585350  1
  H  H9  1  0.18713627  0.06003819  0.87032630  1
  H  H10  1  0.65850844  0.06592120  0.40006414  1
  H  H11  1  0.18193940  0.42033170  0.80371346  1
