# generated using pymatgen
data_Sr3Nb2H15
_symmetry_space_group_name_H-M   'P 1'
_cell_length_a   3.72510651
_cell_length_b   8.81943825
_cell_length_c   10.11011820
_cell_angle_alpha   125.28456993
_cell_angle_beta   102.40950326
_cell_angle_gamma   100.22414660
_symmetry_Int_Tables_number   1
_chemical_formula_structural   Sr3Nb2H15
_chemical_formula_sum   'Sr3 Nb2 H15'
_cell_volume   245.11333243
_cell_formula_units_Z   1
loop_
 _symmetry_equiv_pos_site_id
 _symmetry_equiv_pos_as_xyz
  1  'x, y, z'
loop_
 _atom_site_type_symbol
 _atom_site_label
 _atom_site_symmetry_multiplicity
 _atom_site_fract_x
 _atom_site_fract_y
 _atom_site_fract_z
 _atom_site_occupancy
  Sr  Sr0  1  0.05743601  0.07852828  0.44078891  1
  Sr  Sr1  1  0.92030352  0.58722615  0.67668241  1
  Sr  Sr2  1  0.41744793  0.18396450  0.14206116  1
  Nb  Nb3  1  0.35407818  0.67258606  0.38997638  1
  Nb  Nb4  1  0.72270966  0.02054012  0.72611936  1
  H  H5  1  0.68524040  0.55955538  0.42098100  1
  H  H6  1  0.71213835  0.60946610  0.25909354  1
  H  H7  1  0.35804784  0.81478571  0.31038807  1
  H  H8  1  0.10858878  0.42292057  0.32513948  1
  H  H9  1  0.43137881  0.74812736  0.61576989  1
  H  H10  1  0.89987686  0.86063961  0.53548216  1
  H  H11  1  0.06373213  0.93689859  0.79950681  1
  H  H12  1  0.30098245  0.15374608  0.79057202  1
  H  H13  1  0.29103234  0.76116487  0.01876781  1
  H  H14  1  0.72947344  0.06060137  0.92581215  1
  H  H15  1  0.84595839  0.00566475  0.14821835  1
  H  H16  1  0.74243400  0.17806574  0.66101745  1
  H  H17  1  0.07557321  0.73829378  0.00926363  1
  H  H18  1  0.61223064  0.24098073  0.41807654  1
  H  H19  1  0.37361806  0.45045427  0.69530589  1
