# generated using pymatgen
data_Sr2NbH7
_symmetry_space_group_name_H-M   'P 1'
_cell_length_a   3.87367662
_cell_length_b   5.92785598
_cell_length_c   6.98636834
_cell_angle_alpha   117.11299001
_cell_angle_beta   123.98406064
_cell_angle_gamma   88.56520842
_symmetry_Int_Tables_number   1
_chemical_formula_structural   Sr2NbH7
_chemical_formula_sum   'Sr2 Nb1 H7'
_cell_volume   112.52500413
_cell_formula_units_Z   1
loop_
 _symmetry_equiv_pos_site_id
 _symmetry_equiv_pos_as_xyz
  1  'x, y, z'
loop_
 _atom_site_type_symbol
 _atom_site_label
 _atom_site_symmetry_multiplicity
 _atom_site_fract_x
 _atom_site_fract_y
 _atom_site_fract_z
 _atom_site_occupancy
  Sr  Sr0  1  0.29041892  0.88540138  0.53878711  1
  Sr  Sr1  1  0.26589475  0.20121839  0.20765370  1
  Nb  Nb2  1  0.29446703  0.54966147  0.90815196  1
  H  H3  1  0.03337264  0.18074134  0.75699875  1
  H  H4  1  0.53906598  0.86127360  0.24642457  1
  H  H5  1  0.92447234  0.54215052  0.02547172  1
  H  H6  1  0.47654537  0.86590344  0.92539189  1
  H  H7  1  0.78290518  0.61973725  0.69484238  1
  H  H8  1  0.09557927  0.35109592  0.53450387  1
  H  H9  1  0.62526952  0.49561370  0.19725004  1
