# generated using pymatgen
data_Sr3Nb2H17
_symmetry_space_group_name_H-M   'P 1'
_cell_length_a   5.41812445
_cell_length_b   4.98506912
_cell_length_c   9.01499823
_cell_angle_alpha   74.26035391
_cell_angle_beta   89.53578665
_cell_angle_gamma   89.26574298
_symmetry_Int_Tables_number   1
_chemical_formula_structural   Sr3Nb2H17
_chemical_formula_sum   'Sr3 Nb2 H17'
_cell_volume   234.34073804
_cell_formula_units_Z   1
loop_
 _symmetry_equiv_pos_site_id
 _symmetry_equiv_pos_as_xyz
  1  'x, y, z'
loop_
 _atom_site_type_symbol
 _atom_site_label
 _atom_site_symmetry_multiplicity
 _atom_site_fract_x
 _atom_site_fract_y
 _atom_site_fract_z
 _atom_site_occupancy
  Sr  Sr0  1  0.04130203  0.68535549  0.08109827  1
  Sr  Sr1  1  0.62085735  0.27882500  0.77710508  1
  Sr  Sr2  1  0.62415809  0.00991195  0.38507375  1
  Nb  Nb3  1  0.08333586  0.46786910  0.47751493  1
  Nb  Nb4  1  0.16393747  0.81045740  0.69536165  1
  H  H5  1  0.30938151  0.15050235  0.56063229  1
  H  H6  1  0.01289849  0.79764286  0.32723297  1
  H  H7  1  0.92809600  0.11591835  0.58864499  1
  H  H8  1  0.00251897  0.49336177  0.67833223  1
  H  H9  1  0.33431449  0.51674775  0.32301821  1
  H  H10  1  0.21858570  0.12400007  0.17242840  1
  H  H11  1  0.31443815  0.15519123  0.10749347  1
  H  H12  1  0.21640859  0.00880641  0.84525651  1
  H  H13  1  0.87994964  0.77242342  0.82362023  1
  H  H14  1  0.25946118  0.53276824  0.87243687  1
  H  H15  1  0.54185041  0.61257321  0.12173989  1
  H  H16  1  0.95845695  0.33834985  0.31508319  1
  H  H17  1  0.34443627  0.64758121  0.55837090  1
  H  H18  1  0.54293274  0.63329843  0.03396447  1
  H  H19  1  0.76743101  0.12449434  0.07023704  1
  H  H20  1  0.49749655  0.82469138  0.72010942  1
  H  H21  1  0.74437754  0.49724618  0.47696525  1
