# generated using pymatgen
data_SrNbH5
_symmetry_space_group_name_H-M   'P 1'
_cell_length_a   3.51823233
_cell_length_b   6.29659226
_cell_length_c   6.75599296
_cell_angle_alpha   104.27538631
_cell_angle_beta   89.87746965
_cell_angle_gamma   90.33334921
_symmetry_Int_Tables_number   1
_chemical_formula_structural   SrNbH5
_chemical_formula_sum   'Sr2 Nb2 H10'
_cell_volume   145.04078824
_cell_formula_units_Z   2
loop_
 _symmetry_equiv_pos_site_id
 _symmetry_equiv_pos_as_xyz
  1  'x, y, z'
loop_
 _atom_site_type_symbol
 _atom_site_label
 _atom_site_symmetry_multiplicity
 _atom_site_fract_x
 _atom_site_fract_y
 _atom_site_fract_z
 _atom_site_occupancy
  Sr  Sr0  1  0.84765133  0.22380716  0.70762017  1
  Sr  Sr1  1  0.87331578  0.62401889  0.31256747  1
  Nb  Nb2  1  0.29382767  0.76917293  0.87250822  1
  Nb  Nb3  1  0.35058855  0.10943045  0.20797740  1
  H  H4  1  0.85548998  0.62366949  0.93165432  1
  H  H5  1  0.83612638  0.80294334  0.69884823  1
  H  H6  1  0.34798224  0.46482191  0.81350698  1
  H  H7  1  0.36260181  0.08088824  0.89914089  1
  H  H8  1  0.92015453  0.95401534  0.03968318  1
  H  H9  1  0.37195952  0.36739166  0.44884926  1
  H  H10  1  0.38310857  0.77965995  0.14525374  1
  H  H11  1  0.33993968  0.99108178  0.44904732  1
  H  H12  1  0.37276422  0.37694055  0.13809102  1
  H  H13  1  0.86639575  0.21225431  0.31379281  1
