# generated using pymatgen
data_Sr2NbH9
_symmetry_space_group_name_H-M   'P 1'
_cell_length_a   5.78441650
_cell_length_b   4.13921505
_cell_length_c   6.17622590
_cell_angle_alpha   91.58653151
_cell_angle_beta   92.07625234
_cell_angle_gamma   89.03194927
_symmetry_Int_Tables_number   1
_chemical_formula_structural   Sr2NbH9
_chemical_formula_sum   'Sr2 Nb1 H9'
_cell_volume   147.70460306
_cell_formula_units_Z   1
loop_
 _symmetry_equiv_pos_site_id
 _symmetry_equiv_pos_as_xyz
  1  'x, y, z'
loop_
 _atom_site_type_symbol
 _atom_site_label
 _atom_site_symmetry_multiplicity
 _atom_site_fract_x
 _atom_site_fract_y
 _atom_site_fract_z
 _atom_site_occupancy
  Sr  Sr0  1  0.61585026  0.62123939  0.23624409  1
  Sr  Sr1  1  0.08000099  0.68198251  0.80192209  1
  Nb  Nb2  1  0.12854843  0.15386563  0.33558472  1
  H  H3  1  0.90017412  0.95788404  0.47099522  1
  H  H4  1  0.21713321  0.62694912  0.38356486  1
  H  H5  1  0.44097670  0.12494796  0.40268395  1
  H  H6  1  0.63436592  0.63854741  0.84644822  1
  H  H7  1  0.90877244  0.39909322  0.46560342  1
  H  H8  1  0.29436155  0.10511843  0.07890717  1
  H  H9  1  0.92110977  0.98303638  0.13400644  1
  H  H10  1  0.19408798  0.17164606  0.63303836  1
  H  H11  1  -0.00035938  0.42242885  0.14149543  1
