# generated using pymatgen
data_Sr2NbH9
_symmetry_space_group_name_H-M   'P 1'
_cell_length_a   3.53175639
_cell_length_b   6.20043842
_cell_length_c   7.06925713
_cell_angle_alpha   87.11757752
_cell_angle_beta   60.92181336
_cell_angle_gamma   90.97583195
_symmetry_Int_Tables_number   1
_chemical_formula_structural   Sr2NbH9
_chemical_formula_sum   'Sr2 Nb1 H9'
_cell_volume   134.96980346
_cell_formula_units_Z   1
loop_
 _symmetry_equiv_pos_site_id
 _symmetry_equiv_pos_as_xyz
  1  'x, y, z'
loop_
 _atom_site_type_symbol
 _atom_site_label
 _atom_site_symmetry_multiplicity
 _atom_site_fract_x
 _atom_site_fract_y
 _atom_site_fract_z
 _atom_site_occupancy
  Sr  Sr0  1  0.27503746  0.86132026  0.38980774  1
  Sr  Sr1  1  0.71830418  0.41687638  0.93591591  1
  Nb  Nb2  1  0.71399869  0.35197325  0.44614696  1
  H  H3  1  0.23657702  0.02550170  0.05781488  1
  H  H4  1  0.21132450  0.76612366  0.77725449  1
  H  H5  1  0.98082112  0.82361627  0.83704814  1
  H  H6  1  0.44262303  0.95125080  0.99171257  1
  H  H7  1  0.34330136  0.25389492  0.31193162  1
  H  H8  1  0.40364801  0.27080778  0.74235560  1
  H  H9  1  0.64589971  0.05753990  0.52837108  1
  H  H10  1  0.95341521  0.59180920  0.20621571  1
  H  H11  1  0.12352670  0.48432889  0.54297431  1
