# generated using pymatgen
data_Sr2NbH12
_symmetry_space_group_name_H-M   'P 1'
_cell_length_a   5.16784116
_cell_length_b   5.02397724
_cell_length_c   6.35125545
_cell_angle_alpha   110.78413402
_cell_angle_beta   88.89718865
_cell_angle_gamma   89.49413408
_symmetry_Int_Tables_number   1
_chemical_formula_structural   Sr2NbH12
_chemical_formula_sum   'Sr2 Nb1 H12'
_cell_volume   154.11726825
_cell_formula_units_Z   1
loop_
 _symmetry_equiv_pos_site_id
 _symmetry_equiv_pos_as_xyz
  1  'x, y, z'
loop_
 _atom_site_type_symbol
 _atom_site_label
 _atom_site_symmetry_multiplicity
 _atom_site_fract_x
 _atom_site_fract_y
 _atom_site_fract_z
 _atom_site_occupancy
  Sr  Sr0  1  0.89260396  0.12692167  0.98677579  1
  Sr  Sr1  1  0.41586740  0.39587160  0.53716392  1
  Nb  Nb2  1  0.37643217  0.70705895  0.12214194  1
  H  H3  1  0.90636060  0.25732933  0.61050735  1
  H  H4  1  0.91277268  0.11546225  0.50825715  1
  H  H5  1  0.38424302  0.30357168  0.93430497  1
  H  H6  1  0.39208070  0.94852375  0.94752783  1
  H  H7  1  0.15312524  0.61265895  0.87459469  1
  H  H8  1  0.02916840  0.73448548  0.16539410  1
  H  H9  1  0.62542160  0.52791966  0.24155943  1
  H  H10  1  0.18626026  0.45687517  0.23065722  1
  H  H11  1  0.62417519  0.98188439  0.24380625  1
  H  H12  1  0.20508488  0.06144631  0.22827248  1
  H  H13  1  0.65225124  0.60636370  0.89510166  1
  H  H14  1  0.33340167  0.85087311  0.44131722  1
