# generated using pymatgen
data_Sr2NbH9
_symmetry_space_group_name_H-M   'P 1'
_cell_length_a   4.20457817
_cell_length_b   5.89715279
_cell_length_c   5.95205614
_cell_angle_alpha   92.57675836
_cell_angle_beta   90.05092994
_cell_angle_gamma   90.03775997
_symmetry_Int_Tables_number   1
_chemical_formula_structural   Sr2NbH9
_chemical_formula_sum   'Sr2 Nb1 H9'
_cell_volume   147.43215360
_cell_formula_units_Z   1
loop_
 _symmetry_equiv_pos_site_id
 _symmetry_equiv_pos_as_xyz
  1  'x, y, z'
loop_
 _atom_site_type_symbol
 _atom_site_label
 _atom_site_symmetry_multiplicity
 _atom_site_fract_x
 _atom_site_fract_y
 _atom_site_fract_z
 _atom_site_occupancy
  Sr  Sr0  1  0.64477082  0.64964554  0.45548203  1
  Sr  Sr1  1  0.64334495  0.14256803  0.90442333  1
  Nb  Nb2  1  0.14311996  0.14633660  0.38877100  1
  H  H3  1  0.14350142  0.06591904  0.08673106  1
  H  H4  1  0.64269593  0.69793977  0.86903367  1
  H  H5  1  0.36428284  0.32396259  0.58995489  1
  H  H6  1  0.14440421  0.83637590  0.32904631  1
  H  H7  1  0.92776950  0.32514879  0.59085152  1
  H  H8  1  0.36281849  0.35537236  0.23859573  1
  H  H9  1  0.92507242  0.35467082  0.23851265  1
  H  H10  1  0.64369552  0.06680558  0.37193573  1
  H  H11  1  0.14308194  0.99369498  0.66007108  1
