# generated using pymatgen
data_SrNbH22
_symmetry_space_group_name_H-M   'P 1'
_cell_length_a   5.22090628
_cell_length_b   5.31401948
_cell_length_c   7.37816948
_cell_angle_alpha   86.56777944
_cell_angle_beta   91.69598992
_cell_angle_gamma   92.26565184
_symmetry_Int_Tables_number   1
_chemical_formula_structural   SrNbH22
_chemical_formula_sum   'Sr1 Nb1 H22'
_cell_volume   204.09692123
_cell_formula_units_Z   1
loop_
 _symmetry_equiv_pos_site_id
 _symmetry_equiv_pos_as_xyz
  1  'x, y, z'
loop_
 _atom_site_type_symbol
 _atom_site_label
 _atom_site_symmetry_multiplicity
 _atom_site_fract_x
 _atom_site_fract_y
 _atom_site_fract_z
 _atom_site_occupancy
  Sr  Sr0  1  0.17092041  0.20605443  0.72820235  1
  Nb  Nb1  1  0.71509666  0.67340245  0.84072822  1
  H  H2  1  0.58423627  0.84249376  0.28730706  1
  H  H3  1  0.58607598  0.80914242  0.38858486  1
  H  H4  1  0.45486782  0.52683702  0.02259916  1
  H  H5  1  0.42066084  0.67476929  0.01126325  1
  H  H6  1  0.03350952  0.90472221  0.43388962  1
  H  H7  1  0.14515962  0.95664890  0.37771235  1
  H  H8  1  0.83243060  0.55418335  0.63649368  1
  H  H9  1  0.61972961  0.34726550  0.81367296  1
  H  H10  1  0.90566362  0.56686465  0.07879548  1
  H  H11  1  0.88983149  0.71940579  0.09181797  1
  H  H12  1  0.05917056  0.72473370  0.81529690  1
  H  H13  1  0.51001907  0.93849116  0.86966137  1
  H  H14  1  0.45666401  0.65201677  0.66537140  1
  H  H15  1  0.77296573  0.92354511  0.66782338  1
  H  H16  1  0.36826825  0.09656601  0.08356495  1
  H  H17  1  0.27676600  0.18025654  0.12497021  1
  H  H18  1  0.24552065  0.49720981  0.39122923  1
  H  H19  1  0.13298687  0.42327827  0.35195441  1
  H  H20  1  0.65644424  0.26276389  0.33750696  1
  H  H21  1  0.67748992  0.35497993  0.41114580  1
  H  H22  1  0.87798005  0.21495831  0.00303391  1
  H  H23  1  0.87484423  0.05968374  0.00482951  1
