# generated using pymatgen
data_Sr2NbH7
_symmetry_space_group_name_H-M   'P 1'
_cell_length_a   3.28927439
_cell_length_b   3.35095894
_cell_length_c   15.37134915
_cell_angle_alpha   103.09892527
_cell_angle_beta   96.20836788
_cell_angle_gamma   89.93374155
_symmetry_Int_Tables_number   1
_chemical_formula_structural   Sr2NbH7
_chemical_formula_sum   'Sr2 Nb1 H7'
_cell_volume   164.00248580
_cell_formula_units_Z   1
loop_
 _symmetry_equiv_pos_site_id
 _symmetry_equiv_pos_as_xyz
  1  'x, y, z'
loop_
 _atom_site_type_symbol
 _atom_site_label
 _atom_site_symmetry_multiplicity
 _atom_site_fract_x
 _atom_site_fract_y
 _atom_site_fract_z
 _atom_site_occupancy
  Sr  Sr0  1  0.17618302  0.18703338  0.28946513  1
  Sr  Sr1  1  0.36442133  0.55847488  0.67097701  1
  Nb  Nb2  1  0.77429962  0.87265643  0.48730699  1
  H  H3  1  0.33839914  0.60785285  0.84570264  1
  H  H4  1  0.57399303  0.60336519  0.84517064  1
  H  H5  1  0.06005402  0.99695023  0.09272256  1
  H  H6  1  0.92381192  0.85195811  0.10775638  1
  H  H7  1  0.71429034  0.76515269  0.36037539  1
  H  H8  1  0.63981037  0.61726711  0.21803650  1
  H  H9  1  0.80601920  0.44173213  0.55448276  1
