# generated using pymatgen
data_Sr2NbH7
_symmetry_space_group_name_H-M   'P 1'
_cell_length_a   3.26647347
_cell_length_b   6.51800503
_cell_length_c   6.47969627
_cell_angle_alpha   101.93181422
_cell_angle_beta   78.31269422
_cell_angle_gamma   89.45055988
_symmetry_Int_Tables_number   1
_chemical_formula_structural   Sr2NbH7
_chemical_formula_sum   'Sr2 Nb1 H7'
_cell_volume   131.98855339
_cell_formula_units_Z   1
loop_
 _symmetry_equiv_pos_site_id
 _symmetry_equiv_pos_as_xyz
  1  'x, y, z'
loop_
 _atom_site_type_symbol
 _atom_site_label
 _atom_site_symmetry_multiplicity
 _atom_site_fract_x
 _atom_site_fract_y
 _atom_site_fract_z
 _atom_site_occupancy
  Sr  Sr0  1  0.52957745  0.65763502  0.82422305  1
  Sr  Sr1  1  0.71066253  0.16312593  0.39628344  1
  Nb  Nb2  1  0.00925840  0.14014395  0.87513512  1
  H  H3  1  0.45116161  0.75336721  0.36438863  1
  H  H4  1  0.53334698  0.29455222  0.80723240  1
  H  H5  1  0.41253866  0.18351963  0.08068314  1
  H  H6  1  0.65431776  0.71001829  0.28149937  1
  H  H7  1  0.95052162  0.91383820  0.02398511  1
  H  H8  1  0.13479334  0.45027344  0.55898355  1
  H  H9  1  0.57209665  0.98544310  0.72342919  1
