# generated using pymatgen
data_SrNb3H16
_symmetry_space_group_name_H-M   'P 1'
_cell_length_a   4.88289356
_cell_length_b   5.31178496
_cell_length_c   6.26543546
_cell_angle_alpha   90.01115206
_cell_angle_beta   90.04622872
_cell_angle_gamma   91.18330882
_symmetry_Int_Tables_number   1
_chemical_formula_structural   SrNb3H16
_chemical_formula_sum   'Sr1 Nb3 H16'
_cell_volume   162.47113892
_cell_formula_units_Z   1
loop_
 _symmetry_equiv_pos_site_id
 _symmetry_equiv_pos_as_xyz
  1  'x, y, z'
loop_
 _atom_site_type_symbol
 _atom_site_label
 _atom_site_symmetry_multiplicity
 _atom_site_fract_x
 _atom_site_fract_y
 _atom_site_fract_z
 _atom_site_occupancy
  Sr  Sr0  1  0.55764118  0.93167161  0.55219024  1
  Nb  Nb1  1  0.07239271  0.40135146  0.30281624  1
  Nb  Nb2  1  0.04401246  0.89135138  0.05241365  1
  Nb  Nb3  1  0.07255645  0.40101555  0.80187199  1
  H  H4  1  0.80301311  0.40661717  0.55263692  1
  H  H5  1  0.13852944  0.20042583  0.55260801  1
  H  H6  1  0.81649386  0.12164203  0.23001404  1
  H  H7  1  0.81685387  0.12070332  0.87360584  1
  H  H8  1  0.24333794  0.08930059  0.84521305  1
  H  H9  1  0.28238138  0.69217424  0.87145088  1
  H  H10  1  0.86377140  0.72514543  0.80898264  1
  H  H11  1  0.18283174  0.58295169  0.55262008  1
  H  H12  1  0.28893914  0.36676823  0.05270710  1
  H  H13  1  0.40645323  0.91089212  0.05271937  1
  H  H14  1  0.28344609  0.69169232  0.23240618  1
  H  H15  1  0.86621367  0.72661872  0.29691477  1
  H  H16  1  0.43359303  0.39619941  0.32941773  1
  H  H17  1  0.87881022  0.52276220  0.05271370  1
  H  H18  1  0.24245721  0.08880719  0.26027727  1
  H  H19  1  0.43297686  0.39563851  0.77512528  1
