# generated using pymatgen
data_SrNbH10
_symmetry_space_group_name_H-M   'P 1'
_cell_length_a   3.38186593
_cell_length_b   5.35309051
_cell_length_c   6.10619384
_cell_angle_alpha   115.12443467
_cell_angle_beta   89.58768712
_cell_angle_gamma   90.11093467
_symmetry_Int_Tables_number   1
_chemical_formula_structural   SrNbH10
_chemical_formula_sum   'Sr1 Nb1 H10'
_cell_volume   100.08168881
_cell_formula_units_Z   1
loop_
 _symmetry_equiv_pos_site_id
 _symmetry_equiv_pos_as_xyz
  1  'x, y, z'
loop_
 _atom_site_type_symbol
 _atom_site_label
 _atom_site_symmetry_multiplicity
 _atom_site_fract_x
 _atom_site_fract_y
 _atom_site_fract_z
 _atom_site_occupancy
  Sr  Sr0  1  0.66470102  0.73284727  0.30030913  1
  Nb  Nb1  1  0.14768023  0.41398002  0.66359536  1
  H  H2  1  0.16662826  0.86048975  0.71722003  1
  H  H3  1  0.15616779  0.46057847  0.38264756  1
  H  H4  1  0.68045617  0.64955125  0.73128607  1
  H  H5  1  0.71651568  0.06679179  0.03136650  1
  H  H6  1  0.68330556  0.32015994  0.80630512  1
  H  H7  1  0.16519118  0.63222506  0.00691618  1
  H  H8  1  0.68708911  0.28972774  0.47826027  1
  H  H9  1  0.16835865  0.07300640  0.39578014  1
  H  H10  1  0.16317905  0.02973414  0.72066914  1
  H  H11  1  0.53181331  0.11421717  0.10594752  1
