# generated using pymatgen
data_SrNbH13
_symmetry_space_group_name_H-M   'P 1'
_cell_length_a   5.37351380
_cell_length_b   5.23306326
_cell_length_c   5.26282611
_cell_angle_alpha   69.21014047
_cell_angle_beta   83.00522802
_cell_angle_gamma   90.76471845
_symmetry_Int_Tables_number   1
_chemical_formula_structural   SrNbH13
_chemical_formula_sum   'Sr1 Nb1 H13'
_cell_volume   137.06930246
_cell_formula_units_Z   1
loop_
 _symmetry_equiv_pos_site_id
 _symmetry_equiv_pos_as_xyz
  1  'x, y, z'
loop_
 _atom_site_type_symbol
 _atom_site_label
 _atom_site_symmetry_multiplicity
 _atom_site_fract_x
 _atom_site_fract_y
 _atom_site_fract_z
 _atom_site_occupancy
  Sr  Sr0  1  0.05439255  0.30116863  0.73454831  1
  Nb  Nb1  1  0.65108281  0.94360087  0.47605287  1
  H  H2  1  0.57018924  0.32454157  0.32413362  1
  H  H3  1  0.42079248  0.69159696  0.43937610  1
  H  H4  1  0.68848301  0.96955638  0.12256975  1
  H  H5  1  0.51972069  0.26188607  0.21364120  1
  H  H6  1  0.33121449  0.98126332  0.61211174  1
  H  H7  1  0.62272979  0.69908199  0.86068308  1
  H  H8  1  0.90809212  0.89219600  0.67546587  1
  H  H9  1  0.63922690  0.19349215  0.64577991  1
  H  H10  1  0.18879648  0.62947759  0.11049932  1
  H  H11  1  0.10366960  0.68668814  0.00291800  1
  H  H12  1  0.83893987  0.66386475  0.44908455  1
  H  H13  1  0.54624010  0.61026956  0.79042004  1
  H  H14  1  0.92996686  0.17662202  0.28205165  1
