# generated using pymatgen
data_Sr2NbH9
_symmetry_space_group_name_H-M   'P 1'
_cell_length_a   3.33452230
_cell_length_b   6.48184591
_cell_length_c   7.31028612
_cell_angle_alpha   85.11110875
_cell_angle_beta   63.37101924
_cell_angle_gamma   90.45927398
_symmetry_Int_Tables_number   1
_chemical_formula_structural   Sr2NbH9
_chemical_formula_sum   'Sr2 Nb1 H9'
_cell_volume   140.54026325
_cell_formula_units_Z   1
loop_
 _symmetry_equiv_pos_site_id
 _symmetry_equiv_pos_as_xyz
  1  'x, y, z'
loop_
 _atom_site_type_symbol
 _atom_site_label
 _atom_site_symmetry_multiplicity
 _atom_site_fract_x
 _atom_site_fract_y
 _atom_site_fract_z
 _atom_site_occupancy
  Sr  Sr0  1  0.15728054  0.49460223  0.56706678  1
  Sr  Sr1  1  0.69439720  0.13724734  0.03492905  1
  Nb  Nb2  1  0.13065061  0.65101911  0.09129391  1
  H  H3  1  0.51802129  0.82638919  0.69808829  1
  H  H4  1  0.77470574  0.76662692  0.94626613  1
  H  H5  1  0.40000423  0.11678743  0.44645595  1
  H  H6  1  0.04256636  0.91040026  0.18662051  1
  H  H7  1  0.85896912  0.65057523  0.36537440  1
  H  H8  1  0.63947210  0.82585347  0.57812133  1
  H  H9  1  0.54590601  0.49104561  0.17444653  1
  H  H10  1  0.47736974  0.24765342  0.74744121  1
  H  H11  1  0.16853006  0.11191380  0.44356891  1
