# generated using pymatgen
data_Sr2NbH8
_symmetry_space_group_name_H-M   'P 1'
_cell_length_a   4.04353996
_cell_length_b   6.21709167
_cell_length_c   6.21782915
_cell_angle_alpha   67.89949844
_cell_angle_beta   71.36003410
_cell_angle_gamma   71.02353455
_symmetry_Int_Tables_number   1
_chemical_formula_structural   Sr2NbH8
_chemical_formula_sum   'Sr2 Nb1 H8'
_cell_volume   133.43787929
_cell_formula_units_Z   1
loop_
 _symmetry_equiv_pos_site_id
 _symmetry_equiv_pos_as_xyz
  1  'x, y, z'
loop_
 _atom_site_type_symbol
 _atom_site_label
 _atom_site_symmetry_multiplicity
 _atom_site_fract_x
 _atom_site_fract_y
 _atom_site_fract_z
 _atom_site_occupancy
  Sr  Sr0  1  0.99469463  0.41770812  0.58470929  1
  Sr  Sr1  1  0.43807102  0.97849987  0.14523308  1
  Nb  Nb2  1  0.21875086  0.63318169  0.93002377  1
  H  H3  1  0.73700352  0.18134514  0.37711670  1
  H  H4  1  0.74039036  0.06771693  0.48872213  1
  H  H5  1  0.08267036  0.98596856  0.85195445  1
  H  H6  1  0.24037658  0.36276757  0.20055983  1
  H  H7  1  0.35196800  0.71420110  0.57750083  1
  H  H8  1  0.40846962  0.35038839  0.82587424  1
  H  H9  1  0.02480298  0.73591134  0.21248142  1
  H  H10  1  0.71770405  0.66613930  0.89786926  1
