# generated using pymatgen
data_Sr(NbH5)3
_symmetry_space_group_name_H-M   'P 1'
_cell_length_a   5.06474919
_cell_length_b   6.53783202
_cell_length_c   6.28904580
_cell_angle_alpha   88.60964539
_cell_angle_beta   95.04251665
_cell_angle_gamma   108.97183678
_symmetry_Int_Tables_number   1
_chemical_formula_structural   Sr(NbH5)3
_chemical_formula_sum   'Sr1 Nb3 H15'
_cell_volume   196.16943135
_cell_formula_units_Z   1
loop_
 _symmetry_equiv_pos_site_id
 _symmetry_equiv_pos_as_xyz
  1  'x, y, z'
loop_
 _atom_site_type_symbol
 _atom_site_label
 _atom_site_symmetry_multiplicity
 _atom_site_fract_x
 _atom_site_fract_y
 _atom_site_fract_z
 _atom_site_occupancy
  Sr  Sr0  1  0.74308299  0.76123017  0.25443743  1
  Nb  Nb1  1  0.96812352  0.32942780  0.52370429  1
  Nb  Nb2  1  0.41811205  0.20021969  0.28106922  1
  Nb  Nb3  1  0.94692990  0.31683991  0.99165548  1
  H  H4  1  0.02654889  0.61539868  0.51057601  1
  H  H5  1  0.05757195  0.47202453  0.26188038  1
  H  H6  1  0.75831389  0.16225194  0.26304008  1
  H  H7  1  0.03757170  0.16968616  0.76743277  1
  H  H8  1  0.15486070  0.49643681  0.78065803  1
  H  H9  1  0.59538409  0.13180189  0.53867036  1
  H  H10  1  0.75032952  0.37227586  0.74164601  1
  H  H11  1  0.55120979  0.24397485  0.00848653  1
  H  H12  1  0.72619259  0.04307592  0.93630742  1
  H  H13  1  0.31001080  0.90336732  0.27720814  1
  H  H14  1  0.87412423  0.57464846  0.99001753  1
  H  H15  1  0.34244916  0.41869702  0.09099724  1
  H  H16  1  0.09217945  0.08516021  0.08945824  1
  H  H17  1  0.10129719  0.08758911  0.44460927  1
  H  H18  1  0.38784861  0.39829867  0.48290858  1
