# generated using pymatgen
data_SrNbH10
_symmetry_space_group_name_H-M   'P 1'
_cell_length_a   4.29344539
_cell_length_b   5.15459075
_cell_length_c   5.26308052
_cell_angle_alpha   78.58037930
_cell_angle_beta   84.58235943
_cell_angle_gamma   89.04538724
_symmetry_Int_Tables_number   1
_chemical_formula_structural   SrNbH10
_chemical_formula_sum   'Sr1 Nb1 H10'
_cell_volume   113.66089152
_cell_formula_units_Z   1
loop_
 _symmetry_equiv_pos_site_id
 _symmetry_equiv_pos_as_xyz
  1  'x, y, z'
loop_
 _atom_site_type_symbol
 _atom_site_label
 _atom_site_symmetry_multiplicity
 _atom_site_fract_x
 _atom_site_fract_y
 _atom_site_fract_z
 _atom_site_occupancy
  Sr  Sr0  1  0.04449063  0.26101770  0.23858415  1
  Nb  Nb1  1  0.38479660  0.69433888  0.59362870  1
  H  H2  1  0.77501542  0.48576213  0.73472540  1
  H  H3  1  0.60434437  0.41424658  0.81607644  1
  H  H4  1  0.51085550  0.88954703  0.86424749  1
  H  H5  1  0.66343365  0.91979712  0.75856029  1
  H  H6  1  0.19926542  0.36978748  0.67847536  1
  H  H7  1  0.52668065  0.48859587  0.35032556  1
  H  H8  1  0.18388132  0.65767405  0.91724744  1
  H  H9  1  0.13080464  0.97025700  0.62301364  1
  H  H10  1  0.54296870  0.97224202  0.31526780  1
  H  H11  1  0.12986409  0.73177513  0.33697173  1
