# generated using pymatgen
data_Sr3(NbH9)2
_symmetry_space_group_name_H-M   'P 1'
_cell_length_a   6.17721761
_cell_length_b   7.36128015
_cell_length_c   5.70559118
_cell_angle_alpha   80.73601390
_cell_angle_beta   89.51143781
_cell_angle_gamma   92.53272280
_symmetry_Int_Tables_number   1
_chemical_formula_structural   Sr3(NbH9)2
_chemical_formula_sum   'Sr3 Nb2 H18'
_cell_volume   255.77970081
_cell_formula_units_Z   1
loop_
 _symmetry_equiv_pos_site_id
 _symmetry_equiv_pos_as_xyz
  1  'x, y, z'
loop_
 _atom_site_type_symbol
 _atom_site_label
 _atom_site_symmetry_multiplicity
 _atom_site_fract_x
 _atom_site_fract_y
 _atom_site_fract_z
 _atom_site_occupancy
  Sr  Sr0  1  0.55001852  0.11241411  0.56778637  1
  Sr  Sr1  1  0.99366386  0.61871224  0.59770192  1
  Sr  Sr2  1  0.09075723  0.07676625  0.01971908  1
  Nb  Nb3  1  0.61409948  0.80639979  0.15779913  1
  Nb  Nb4  1  0.43550783  0.47963254  0.99462642  1
  H  H5  1  0.32325313  0.32265986  0.79615882  1
  H  H6  1  0.67469754  0.79738109  0.47130622  1
  H  H7  1  0.39773176  0.89741499  0.32080158  1
  H  H8  1  0.89115116  0.28043067  0.67518333  1
  H  H9  1  0.76487893  0.91919460  0.89720705  1
  H  H10  1  0.64577175  0.67213279  0.89652161  1
  H  H11  1  0.56521918  0.49275353  0.71146443  1
  H  H12  1  0.33159458  0.67778574  0.14323388  1
  H  H13  1  0.13953957  0.46850921  0.01180989  1
  H  H14  1  0.33816114  0.64155168  0.75728434  1
  H  H15  1  0.33139336  0.28699760  0.23353075  1
  H  H16  1  0.61804338  0.52788430  0.26525968  1
  H  H17  1  0.62464876  0.26699632  0.02963656  1
  H  H18  1  0.90993438  0.77101719  0.19052394  1
  H  H19  1  0.72373029  0.03514417  0.20901344  1
  H  H20  1  0.45542104  0.97139123  0.96845859  1
  H  H21  1  0.14651602  0.96969162  0.62345170  1
  H  H22  1  0.67870111  0.33162749  0.90756826  1
