# generated using pymatgen
data_SrNb4H17
_symmetry_space_group_name_H-M   'P 1'
_cell_length_a   3.52298589
_cell_length_b   6.34578494
_cell_length_c   8.39762843
_cell_angle_alpha   100.43376090
_cell_angle_beta   101.20373327
_cell_angle_gamma   90.25860375
_symmetry_Int_Tables_number   1
_chemical_formula_structural   SrNb4H17
_chemical_formula_sum   'Sr1 Nb4 H17'
_cell_volume   180.96195604
_cell_formula_units_Z   1
loop_
 _symmetry_equiv_pos_site_id
 _symmetry_equiv_pos_as_xyz
  1  'x, y, z'
loop_
 _atom_site_type_symbol
 _atom_site_label
 _atom_site_symmetry_multiplicity
 _atom_site_fract_x
 _atom_site_fract_y
 _atom_site_fract_z
 _atom_site_occupancy
  Sr  Sr0  1  0.12875186  0.12240285  0.14806561  1
  Nb  Nb1  1  0.83295035  0.46438835  0.51612714  1
  Nb  Nb2  1  0.83196958  0.94540447  0.51616816  1
  Nb  Nb3  1  0.45156508  0.27113006  0.77782174  1
  Nb  Nb4  1  0.45609710  0.77468587  0.80446679  1
  H  H5  1  0.71464428  0.66755062  0.36389526  1
  H  H6  1  0.16738819  0.21521750  0.55468190  1
  H  H7  1  0.72206527  0.17348484  0.36599628  1
  H  H8  1  0.20192480  0.71861070  0.55640053  1
  H  H9  1  0.27545108  0.42642865  0.39483076  1
  H  H10  1  0.26740794  0.92373108  0.38783197  1
  H  H11  1  0.00150829  0.29729640  0.88728253  1
  H  H12  1  0.14104177  0.51069319  0.73299459  1
  H  H13  1  0.68870184  0.51494443  0.72212354  1
  H  H14  1  0.53854733  0.11717114  0.95086542  1
  H  H15  1  0.09329471  0.53603053  0.09728537  1
  H  H16  1  0.14349641  0.56102897  0.19035345  1
  H  H17  1  0.00283588  0.79981969  0.90716473  1
  H  H18  1  0.56996714  0.83912171  0.03858613  1
  H  H19  1  0.68900526  0.00391887  0.72513902  1
  H  H20  1  0.52739831  0.54022922  0.93658354  1
  H  H21  1  0.14767553  0.00884885  0.73514653  1
