# generated using pymatgen
data_SrNbH10
_symmetry_space_group_name_H-M   'P 1'
_cell_length_a   3.25173508
_cell_length_b   4.94149127
_cell_length_c   6.61521359
_cell_angle_alpha   68.39615009
_cell_angle_beta   90.00431425
_cell_angle_gamma   90.01138733
_symmetry_Int_Tables_number   1
_chemical_formula_structural   SrNbH10
_chemical_formula_sum   'Sr1 Nb1 H10'
_cell_volume   98.82892142
_cell_formula_units_Z   1
loop_
 _symmetry_equiv_pos_site_id
 _symmetry_equiv_pos_as_xyz
  1  'x, y, z'
loop_
 _atom_site_type_symbol
 _atom_site_label
 _atom_site_symmetry_multiplicity
 _atom_site_fract_x
 _atom_site_fract_y
 _atom_site_fract_z
 _atom_site_occupancy
  Sr  Sr0  1  0.61100229  0.60121455  0.20201665  1
  Nb  Nb1  1  0.11095965  0.30406321  0.78841571  1
  H  H2  1  0.11102767  0.97279570  0.73941993  1
  H  H3  1  0.11100766  0.96516775  0.02027829  1
  H  H4  1  0.11098183  0.40231143  0.03944572  1
  H  H5  1  0.61093973  0.16484702  0.68650555  1
  H  H6  1  0.61101984  0.20014582  0.96532907  1
  H  H7  1  0.12768742  0.97379241  0.37767814  1
  H  H8  1  0.46021395  0.98460114  0.37843990  1
  H  H9  1  0.79666896  0.98350322  0.37853720  1
  H  H10  1  0.11098556  0.41574495  0.48207220  1
  H  H11  1  0.61102045  0.56777379  0.71272466  1
