# generated using pymatgen
data_Sr2NbH9
_symmetry_space_group_name_H-M   'P 1'
_cell_length_a   5.56073052
_cell_length_b   6.88136599
_cell_length_c   8.07341087
_cell_angle_alpha   74.51951822
_cell_angle_beta   69.04198915
_cell_angle_gamma   63.90312476
_symmetry_Int_Tables_number   1
_chemical_formula_structural   Sr2NbH9
_chemical_formula_sum   'Sr4 Nb2 H18'
_cell_volume   256.86208957
_cell_formula_units_Z   2
loop_
 _symmetry_equiv_pos_site_id
 _symmetry_equiv_pos_as_xyz
  1  'x, y, z'
loop_
 _atom_site_type_symbol
 _atom_site_label
 _atom_site_symmetry_multiplicity
 _atom_site_fract_x
 _atom_site_fract_y
 _atom_site_fract_z
 _atom_site_occupancy
  Sr  Sr0  1  0.02027723  0.51033722  0.59009774  1
  Sr  Sr1  1  0.09225959  0.03964529  0.97873639  1
  Sr  Sr2  1  0.39999292  0.96210303  0.39115699  1
  Sr  Sr3  1  0.34204169  0.46964969  0.98675298  1
  Nb  Nb4  1  0.74266162  0.37481617  0.31354860  1
  Nb  Nb5  1  0.71710779  0.02189502  0.73967835  1
  H  H6  1  0.39885936  0.57658736  0.27015506  1
  H  H7  1  0.75041584  0.64231242  0.21390859  1
  H  H8  1  0.93152194  0.76552311  0.27699044  1
  H  H9  1  0.94106486  0.85539111  0.31301743  1
  H  H10  1  0.08228848  0.37803188  0.30152192  1
  H  H11  1  0.63349323  0.23521475  0.20092606  1
  H  H12  1  0.88263108  0.20832628  0.51375062  1
  H  H13  1  0.58015360  0.55432808  0.49773451  1
  H  H14  1  0.01769322  0.10625962  0.26492924  1
  H  H15  1  0.90046949  0.40535973  0.06362064  1
  H  H16  1  0.49159018  0.25883323  0.47902406  1
  H  H17  1  0.59291270  0.78268884  0.85073103  1
  H  H18  1  0.95529121  0.82112097  0.87663395  1
  H  H19  1  0.54739338  0.04928403  0.99000969  1
  H  H20  1  0.65365875  0.89396645  0.59045218  1
  H  H21  1  0.06444623  0.83819269  0.61290237  1
  H  H22  1  0.33780284  0.26148375  0.78188049  1
  H  H23  1  0.79151275  0.25285525  0.79154167  1
