# generated using pymatgen
data_SrNb5H18
_symmetry_space_group_name_H-M   'P 1'
_cell_length_a   5.82130538
_cell_length_b   6.47512861
_cell_length_c   6.41460137
_cell_angle_alpha   82.46506142
_cell_angle_beta   66.43996219
_cell_angle_gamma   57.41098416
_symmetry_Int_Tables_number   1
_chemical_formula_structural   SrNb5H18
_chemical_formula_sum   'Sr1 Nb5 H18'
_cell_volume   185.62777162
_cell_formula_units_Z   1
loop_
 _symmetry_equiv_pos_site_id
 _symmetry_equiv_pos_as_xyz
  1  'x, y, z'
loop_
 _atom_site_type_symbol
 _atom_site_label
 _atom_site_symmetry_multiplicity
 _atom_site_fract_x
 _atom_site_fract_y
 _atom_site_fract_z
 _atom_site_occupancy
  Sr  Sr0  1  0.30879664  0.37019339  0.74201532  1
  Nb  Nb1  1  0.03431926  0.26004546  0.29092653  1
  Nb  Nb2  1  0.93995070  0.80109741  0.43899020  1
  Nb  Nb3  1  0.40631309  0.83280119  0.47954407  1
  Nb  Nb4  1  0.81041630  0.01756475  0.00536670  1
  Nb  Nb5  1  0.53313814  0.71765885  0.97945707  1
  H  H6  1  0.63294372  0.46924569  0.48348731  1
  H  H7  1  0.95974069  0.05647658  0.55716775  1
  H  H8  1  0.78021875  0.13942641  0.29463478  1
  H  H9  1  0.65399335  0.37829002  0.88519351  1
  H  H10  1  0.18711397  0.07458633  0.01277113  1
  H  H11  1  0.17018895  0.45970374  0.39581050  1
  H  H12  1  0.82777202  0.63933304  0.30893967  1
  H  H13  1  0.17777360  0.17769547  0.53164437  1
  H  H14  1  0.47574647  0.96518978  0.18739046  1
  H  H15  1  0.37207281  0.63411306  0.30587957  1
  H  H16  1  0.53511480  0.00341670  0.56273969  1
  H  H17  1  0.83725068  0.59798069  0.68155702  1
  H  H18  1  0.38403151  0.27538005  0.09975143  1
  H  H19  1  0.27397635  0.78394147  0.80672369  1
  H  H20  1  0.84738587  0.42563834  0.05786523  1
  H  H21  1  0.88212931  0.71204087  0.96062247  1
  H  H22  1  0.12878454  0.73657282  0.11154168  1
  H  H23  1  0.65983646  0.95621690  0.81369384  1
