# generated using pymatgen
data_SrNbH9
_symmetry_space_group_name_H-M   'P 1'
_cell_length_a   3.38460209
_cell_length_b   5.89484035
_cell_length_c   5.52140026
_cell_angle_alpha   66.99146674
_cell_angle_beta   88.90385667
_cell_angle_gamma   89.17404960
_symmetry_Int_Tables_number   1
_chemical_formula_structural   SrNbH9
_chemical_formula_sum   'Sr1 Nb1 H9'
_cell_volume   101.37612716
_cell_formula_units_Z   1
loop_
 _symmetry_equiv_pos_site_id
 _symmetry_equiv_pos_as_xyz
  1  'x, y, z'
loop_
 _atom_site_type_symbol
 _atom_site_label
 _atom_site_symmetry_multiplicity
 _atom_site_fract_x
 _atom_site_fract_y
 _atom_site_fract_z
 _atom_site_occupancy
  Sr  Sr0  1  0.57415662  0.34854985  0.21481371  1
  Nb  Nb1  1  0.03929289  0.70787040  0.59666058  1
  H  H2  1  0.67658787  0.12304959  0.89759580  1
  H  H3  1  0.11034388  0.40243123  0.86760819  1
  H  H4  1  0.52670294  0.03532107  0.98491686  1
  H  H5  1  0.04227804  0.43932121  0.50988579  1
  H  H6  1  0.08281661  0.04362033  0.33851034  1
  H  H7  1  0.58975785  0.88948813  0.62104241  1
  H  H8  1  0.60404197  0.52927664  0.74046271  1
  H  H9  1  0.01038155  0.70467756  0.92496566  1
  H  H10  1  0.59278678  0.74369600  0.37513095  1
