# generated using pymatgen
data_Sr(NbH5)3
_symmetry_space_group_name_H-M   'P 1'
_cell_length_a   6.03567310
_cell_length_b   5.83438017
_cell_length_c   5.89996685
_cell_angle_alpha   78.29955085
_cell_angle_beta   59.76995901
_cell_angle_gamma   63.76212159
_symmetry_Int_Tables_number   1
_chemical_formula_structural   Sr(NbH5)3
_chemical_formula_sum   'Sr1 Nb3 H15'
_cell_volume   160.96213698
_cell_formula_units_Z   1
loop_
 _symmetry_equiv_pos_site_id
 _symmetry_equiv_pos_as_xyz
  1  'x, y, z'
loop_
 _atom_site_type_symbol
 _atom_site_label
 _atom_site_symmetry_multiplicity
 _atom_site_fract_x
 _atom_site_fract_y
 _atom_site_fract_z
 _atom_site_occupancy
  Sr  Sr0  1  0.82525663  0.61442709  0.39201351  1
  Nb  Nb1  1  0.61238759  0.27752495  0.17543510  1
  Nb  Nb2  1  0.27430220  0.94407445  0.17111144  1
  Nb  Nb3  1  0.17380746  0.19659229  0.71836670  1
  H  H4  1  0.02755498  0.53459092  0.68308698  1
  H  H5  1  0.23668563  0.25399251  0.35632881  1
  H  H6  1  0.81361964  0.27280265  0.76936992  1
  H  H7  1  0.27274178  0.25385011  0.96749152  1
  H  H8  1  0.62944864  0.96082293  0.07121751  1
  H  H9  1  0.58539205  0.05147711  0.43505044  1
  H  H10  1  0.87342059  0.18638091  0.33703814  1
  H  H11  1  0.20787290  0.92963413  0.54964275  1
  H  H12  1  0.04262924  0.83183489  0.44876545  1
  H  H13  1  0.41096859  0.38763607  0.53735827  1
  H  H14  1  0.31487315  0.60867294  0.09602895  1
  H  H15  1  0.00016021  0.99260550  0.02525351  1
  H  H16  1  0.46294590  0.88443619  0.80225585  1
  H  H17  1  0.87625738  0.42635350  0.99072621  1
  H  H18  1  0.51753346  0.62705487  0.25586493  1
