# generated using pymatgen
data_Sr(NbH4)4
_symmetry_space_group_name_H-M   'P 1'
_cell_length_a   5.84455811
_cell_length_b   6.54345504
_cell_length_c   5.42669722
_cell_angle_alpha   73.60927090
_cell_angle_beta   90.10756687
_cell_angle_gamma   63.70642744
_symmetry_Int_Tables_number   1
_chemical_formula_structural   Sr(NbH4)4
_chemical_formula_sum   'Sr1 Nb4 H16'
_cell_volume   176.54938377
_cell_formula_units_Z   1
loop_
 _symmetry_equiv_pos_site_id
 _symmetry_equiv_pos_as_xyz
  1  'x, y, z'
loop_
 _atom_site_type_symbol
 _atom_site_label
 _atom_site_symmetry_multiplicity
 _atom_site_fract_x
 _atom_site_fract_y
 _atom_site_fract_z
 _atom_site_occupancy
  Sr  Sr0  1  0.01415402  0.37591460  0.18020206  1
  Nb  Nb1  1  0.27844640  0.85147176  0.96823683  1
  Nb  Nb2  1  0.64519645  0.12801261  0.73871166  1
  Nb  Nb3  1  0.07106543  0.74571619  0.54016939  1
  Nb  Nb4  1  0.59102651  0.74676143  0.54365142  1
  H  H5  1  0.58574629  0.59386165  0.89006855  1
  H  H6  1  0.23386566  0.93327905  0.27646030  1
  H  H7  1  0.58798809  0.69812458  0.20791731  1
  H  H8  1  0.59913338  0.23702261  0.02919280  1
  H  H9  1  0.68770084  0.07911247  0.10552422  1
  H  H10  1  0.34099077  0.12538634  0.89351691  1
  H  H11  1  0.31586924  0.40968930  0.58887677  1
  H  H12  1  0.22153052  0.59885082  0.88717469  1
  H  H13  1  0.47960068  0.09632589  0.45107162  1
  H  H14  1  0.17000349  0.66107419  0.22709283  1
  H  H15  1  0.81785443  0.77648076  0.78701221  1
  H  H16  1  0.93688420  0.53152349  0.54615145  1
  H  H17  1  0.22946828  0.95142317  0.60479287  1
  H  H18  1  0.66293652  0.41749358  0.55191606  1
  H  H19  1  0.95388906  0.14025683  0.86543904  1
  H  H20  1  0.83469272  0.09693367  0.45194802  1
