# generated using pymatgen
data_SrNbH13
_symmetry_space_group_name_H-M   'P 1'
_cell_length_a   3.64937131
_cell_length_b   6.17233082
_cell_length_c   6.56206659
_cell_angle_alpha   61.94691737
_cell_angle_beta   75.20998835
_cell_angle_gamma   91.02765115
_symmetry_Int_Tables_number   1
_chemical_formula_structural   SrNbH13
_chemical_formula_sum   'Sr1 Nb1 H13'
_cell_volume   124.46328099
_cell_formula_units_Z   1
loop_
 _symmetry_equiv_pos_site_id
 _symmetry_equiv_pos_as_xyz
  1  'x, y, z'
loop_
 _atom_site_type_symbol
 _atom_site_label
 _atom_site_symmetry_multiplicity
 _atom_site_fract_x
 _atom_site_fract_y
 _atom_site_fract_z
 _atom_site_occupancy
  Sr  Sr0  1  0.77820099  0.11224439  0.50118201  1
  Nb  Nb1  1  0.11650939  0.43493873  0.79925263  1
  H  H2  1  0.88009286  0.69406562  0.75221608  1
  H  H3  1  0.35405485  0.71290368  0.75608181  1
  H  H4  1  0.64702248  0.90716276  0.97230199  1
  H  H5  1  0.45631166  0.85343639  0.97226875  1
  H  H6  1  0.98196697  0.14570328  0.07788503  1
  H  H7  1  0.37934940  0.96108625  0.26241619  1
  H  H8  1  0.31359138  0.85868359  0.39451876  1
  H  H9  1  0.36329436  0.46832780  0.34492105  1
  H  H10  1  0.45030417  0.47931313  0.22181388  1
  H  H11  1  0.76310083  0.47940795  0.59592880  1
  H  H12  1  0.56213989  0.33500347  0.94919845  1
  H  H13  1  0.17595643  0.17406372  0.71019709  1
  H  H14  1  0.98595935  0.47314725  0.06011947  1
