# generated using pymatgen
data_Sr2NbH9
_symmetry_space_group_name_H-M   'P 1'
_cell_length_a   5.94047606
_cell_length_b   6.61888320
_cell_length_c   7.76618915
_cell_angle_alpha   65.45101906
_cell_angle_beta   99.26028655
_cell_angle_gamma   78.07779318
_symmetry_Int_Tables_number   1
_chemical_formula_structural   Sr2NbH9
_chemical_formula_sum   'Sr4 Nb2 H18'
_cell_volume   261.11309818
_cell_formula_units_Z   2
loop_
 _symmetry_equiv_pos_site_id
 _symmetry_equiv_pos_as_xyz
  1  'x, y, z'
loop_
 _atom_site_type_symbol
 _atom_site_label
 _atom_site_symmetry_multiplicity
 _atom_site_fract_x
 _atom_site_fract_y
 _atom_site_fract_z
 _atom_site_occupancy
  Sr  Sr0  1  0.03513742  0.98135237  0.92397285  1
  Sr  Sr1  1  0.01699928  0.93513399  0.44268148  1
  Sr  Sr2  1  0.69422776  0.57768138  0.30658766  1
  Sr  Sr3  1  0.62820202  0.59585831  0.80237022  1
  Nb  Nb4  1  0.42139114  0.21318503  0.61512907  1
  Nb  Nb5  1  0.25965396  0.36007715  0.05951234  1
  H  H6  1  0.90279863  0.84407269  0.19825334  1
  H  H7  1  0.60270046  0.26630299  0.14254221  1
  H  H8  1  0.69159012  0.15977361  0.53274895  1
  H  H9  1  0.43374208  0.99598903  0.52703133  1
  H  H10  1  0.66930783  0.29628576  0.70993410  1
  H  H11  1  0.37141379  0.26422309  0.86266435  1
  H  H12  1  0.64793410  0.95516115  0.81805828  1
  H  H13  1  0.32052539  0.97307526  0.75388071  1
  H  H14  1  0.02526524  0.36178706  0.87856646  1
  H  H15  1  0.17912874  0.61510442  0.81434921  1
  H  H16  1  0.36834841  0.60708215  0.05273628  1
  H  H17  1  0.33682239  0.02230582  0.17293770  1
  H  H18  1  0.33472880  0.35292233  0.32915160  1
  H  H19  1  0.08043760  0.28614882  0.53343929  1
  H  H20  1  0.02177312  0.26794869  0.15860231  1
  H  H21  1  0.77553873  0.70030648  0.53353794  1
  H  H22  1  -0.00023141  0.58779245  0.03617264  1
  H  H23  1  0.34442640  0.55070197  0.50731770  1
