# generated using pymatgen
data_Sr2NbH7
_symmetry_space_group_name_H-M   'P 1'
_cell_length_a   3.65046095
_cell_length_b   5.83296378
_cell_length_c   6.87612332
_cell_angle_alpha   88.27318499
_cell_angle_beta   58.63314200
_cell_angle_gamma   89.56510791
_symmetry_Int_Tables_number   1
_chemical_formula_structural   Sr2NbH7
_chemical_formula_sum   'Sr2 Nb1 H7'
_cell_volume   124.95293106
_cell_formula_units_Z   1
loop_
 _symmetry_equiv_pos_site_id
 _symmetry_equiv_pos_as_xyz
  1  'x, y, z'
loop_
 _atom_site_type_symbol
 _atom_site_label
 _atom_site_symmetry_multiplicity
 _atom_site_fract_x
 _atom_site_fract_y
 _atom_site_fract_z
 _atom_site_occupancy
  Sr  Sr0  1  0.89596040  0.26754542  0.80414749  1
  Sr  Sr1  1  0.40424163  0.76248490  0.29934773  1
  Nb  Nb2  1  0.39933862  0.76948427  0.80103397  1
  H  H3  1  0.63065266  0.02627271  0.56329145  1
  H  H4  1  0.97398471  0.82289526  0.72538634  1
  H  H5  1  0.49803586  0.24777849  0.30895444  1
  H  H6  1  0.30245624  0.25678873  0.29435011  1
  H  H7  1  0.64652386  0.53650903  0.55966271  1
  H  H8  1  0.15961507  0.00007519  0.04404079  1
  H  H9  1  0.16227595  0.51702800  0.04457098  1
