# generated using pymatgen
data_SrNbH8
_symmetry_space_group_name_H-M   'P 1'
_cell_length_a   3.24621563
_cell_length_b   5.62692006
_cell_length_c   5.34703798
_cell_angle_alpha   75.00035172
_cell_angle_beta   89.99158345
_cell_angle_gamma   89.98103637
_symmetry_Int_Tables_number   1
_chemical_formula_structural   SrNbH8
_chemical_formula_sum   'Sr1 Nb1 H8'
_cell_volume   94.34216674
_cell_formula_units_Z   1
loop_
 _symmetry_equiv_pos_site_id
 _symmetry_equiv_pos_as_xyz
  1  'x, y, z'
loop_
 _atom_site_type_symbol
 _atom_site_label
 _atom_site_symmetry_multiplicity
 _atom_site_fract_x
 _atom_site_fract_y
 _atom_site_fract_z
 _atom_site_occupancy
  Sr  Sr0  1  0.49510496  0.98862316  0.25974272  1
  Nb  Nb1  1  0.99561399  0.58776783  0.88679799  1
  H  H2  1  -0.00073513  0.31335663  0.42063940  1
  H  H3  1  -0.00107645  0.21215027  0.54728653  1
  H  H4  1  0.49525487  0.46693896  0.09588018  1
  H  H5  1  0.99505287  0.70215716  0.17391486  1
  H  H6  1  0.99554282  0.24206328  0.97521290  1
  H  H7  1  0.99526964  0.83795484  0.58551341  1
  H  H8  1  0.49532347  0.52208574  0.69654897  1
  H  H9  1  0.49482796  0.80385714  0.86587804  1
