# generated using pymatgen
data_Sr2NbH16
_symmetry_space_group_name_H-M   'P 1'
_cell_length_a   3.61449460
_cell_length_b   8.34844967
_cell_length_c   7.07238242
_cell_angle_alpha   77.68176630
_cell_angle_beta   74.35428753
_cell_angle_gamma   79.10068827
_symmetry_Int_Tables_number   1
_chemical_formula_structural   Sr2NbH16
_chemical_formula_sum   'Sr2 Nb1 H16'
_cell_volume   198.80109522
_cell_formula_units_Z   1
loop_
 _symmetry_equiv_pos_site_id
 _symmetry_equiv_pos_as_xyz
  1  'x, y, z'
loop_
 _atom_site_type_symbol
 _atom_site_label
 _atom_site_symmetry_multiplicity
 _atom_site_fract_x
 _atom_site_fract_y
 _atom_site_fract_z
 _atom_site_occupancy
  Sr  Sr0  1  0.85956708  0.55976951  0.84093011  1
  Sr  Sr1  1  0.67462111  0.27666202  0.45601956  1
  Nb  Nb2  1  0.40089296  0.18357636  0.01783301  1
  H  H3  1  0.38130931  0.75184949  0.56872094  1
  H  H4  1  0.41123326  0.68263461  0.50940521  1
  H  H5  1  0.06497833  0.46018779  0.51112096  1
  H  H6  1  0.25363880  0.38679281  0.10864624  1
  H  H7  1  0.53319854  0.60515755  0.21778740  1
  H  H8  1  0.22958074  0.99794037  0.67065830  1
  H  H9  1  0.26109501  0.00253970  0.55850395  1
  H  H10  1  0.39949328  0.92518269  0.06469782  1
  H  H11  1  0.57752454  0.93166819  0.10939756  1
  H  H12  1  0.92589222  0.11921820  0.15271555  1
  H  H13  1  0.01201574  0.23982226  0.88225891  1
  H  H14  1  0.47372705  0.35957095  0.81056824  1
  H  H15  1  0.60231629  0.10398154  0.78439188  1
  H  H16  1  0.32976453  0.13743346  0.29404077  1
  H  H17  1  0.74340752  0.60583207  0.21741010  1
  H  H18  1  0.25005972  0.71722345  0.91716249  1
