# generated using pymatgen
data_SrNbH15
_symmetry_space_group_name_H-M   'P 1'
_cell_length_a   5.34536096
_cell_length_b   5.57268384
_cell_length_c   5.78057080
_cell_angle_alpha   94.13539398
_cell_angle_beta   75.97869187
_cell_angle_gamma   72.03976108
_symmetry_Int_Tables_number   1
_chemical_formula_structural   SrNbH15
_chemical_formula_sum   'Sr1 Nb1 H15'
_cell_volume   156.89672590
_cell_formula_units_Z   1
loop_
 _symmetry_equiv_pos_site_id
 _symmetry_equiv_pos_as_xyz
  1  'x, y, z'
loop_
 _atom_site_type_symbol
 _atom_site_label
 _atom_site_symmetry_multiplicity
 _atom_site_fract_x
 _atom_site_fract_y
 _atom_site_fract_z
 _atom_site_occupancy
  Sr  Sr0  1  0.19753609  0.25431466  0.56963909  1
  Nb  Nb1  1  0.70648598  0.93682393  0.85523629  1
  H  H2  1  0.28835239  0.52614018  0.20459253  1
  H  H3  1  0.21629263  0.63213752  0.31199824  1
  H  H4  1  0.54202142  0.69777353  0.01014640  1
  H  H5  1  0.41278364  0.01959573  0.12961758  1
  H  H6  1  0.47226358  0.25553780  0.87164317  1
  H  H7  1  0.81015924  0.68627914  0.60633216  1
  H  H8  1  0.66759387  0.59310639  0.90489184  1
  H  H9  1  0.94612009  0.81981895  0.07178216  1
  H  H10  1  0.80812211  0.90151575  0.17947073  1
  H  H11  1  0.08004019  0.77038652  0.76152156  1
  H  H12  1  0.86642235  0.17787667  0.90117079  1
  H  H13  1  0.44734872  0.90807691  0.72068975  1
  H  H14  1  0.80985218  0.37013444  0.23670800  1
  H  H15  1  0.76842883  0.47505734  0.34403668  1
  H  H16  1  0.78147168  0.06383553  0.56994902  1
