# generated using pymatgen
data_SrNbH6
_symmetry_space_group_name_H-M   'P 1'
_cell_length_a   3.28654961
_cell_length_b   3.27104286
_cell_length_c   12.55912894
_cell_angle_alpha   88.61784195
_cell_angle_beta   91.46214729
_cell_angle_gamma   62.13133866
_symmetry_Int_Tables_number   1
_chemical_formula_structural   SrNbH6
_chemical_formula_sum   'Sr1 Nb1 H6'
_cell_volume   119.21906140
_cell_formula_units_Z   1
loop_
 _symmetry_equiv_pos_site_id
 _symmetry_equiv_pos_as_xyz
  1  'x, y, z'
loop_
 _atom_site_type_symbol
 _atom_site_label
 _atom_site_symmetry_multiplicity
 _atom_site_fract_x
 _atom_site_fract_y
 _atom_site_fract_z
 _atom_site_occupancy
  Sr  Sr0  1  0.72429428  0.83969477  0.45438422  1
  Nb  Nb1  1  0.34254171  0.53972463  0.21156105  1
  H  H2  1  0.92054117  0.78579367  0.90525699  1
  H  H3  1  0.15558715  0.92900653  0.76498677  1
  H  H4  1  0.75019226  0.80884370  0.94657118  1
  H  H5  1  0.22896678  0.03521483  0.72076614  1
  H  H6  1  0.36614574  0.51894373  0.35623955  1
  H  H7  1  0.67155992  0.88720414  0.14734710  1
