# generated using pymatgen
data_Sr2NbH11
_symmetry_space_group_name_H-M   'P 1'
_cell_length_a   5.13636410
_cell_length_b   5.21509196
_cell_length_c   6.12659701
_cell_angle_alpha   91.49992870
_cell_angle_beta   113.71074879
_cell_angle_gamma   89.27926054
_symmetry_Int_Tables_number   1
_chemical_formula_structural   Sr2NbH11
_chemical_formula_sum   'Sr2 Nb1 H11'
_cell_volume   150.20585443
_cell_formula_units_Z   1
loop_
 _symmetry_equiv_pos_site_id
 _symmetry_equiv_pos_as_xyz
  1  'x, y, z'
loop_
 _atom_site_type_symbol
 _atom_site_label
 _atom_site_symmetry_multiplicity
 _atom_site_fract_x
 _atom_site_fract_y
 _atom_site_fract_z
 _atom_site_occupancy
  Sr  Sr0  1  0.12375285  0.74680570  0.98203312  1
  Sr  Sr1  1  0.39362685  0.25550216  0.53716484  1
  Nb  Nb2  1  0.69535881  0.25627915  0.13212880  1
  H  H3  1  0.31272793  0.76516222  0.63384667  1
  H  H4  1  0.17601245  0.75554900  0.51684850  1
  H  H5  1  0.52688755  0.00566109  0.25286118  1
  H  H6  1  0.86124357  0.26227657  0.46442324  1
  H  H7  1  0.98520003  0.50238091  0.24997690  1
  H  H8  1  0.51073730  0.49765173  0.25749108  1
  H  H9  1  0.58647208  0.53672678  0.93251802  1
  H  H10  1  0.31297306  0.24385968  0.93227772  1
  H  H11  1  0.87838857  0.26492603  0.92876416  1
  H  H12  1  -0.00179700  0.02326611  0.24275137  1
  H  H13  1  0.61044296  0.97278187  0.92256740  1
