# generated using pymatgen
data_Sr2NbH7
_symmetry_space_group_name_H-M   'P 1'
_cell_length_a   3.91104479
_cell_length_b   6.23653779
_cell_length_c   5.54685679
_cell_angle_alpha   116.46636440
_cell_angle_beta   90.18517376
_cell_angle_gamma   104.60181666
_symmetry_Int_Tables_number   1
_chemical_formula_structural   Sr2NbH7
_chemical_formula_sum   'Sr2 Nb1 H7'
_cell_volume   116.15612061
_cell_formula_units_Z   1
loop_
 _symmetry_equiv_pos_site_id
 _symmetry_equiv_pos_as_xyz
  1  'x, y, z'
loop_
 _atom_site_type_symbol
 _atom_site_label
 _atom_site_symmetry_multiplicity
 _atom_site_fract_x
 _atom_site_fract_y
 _atom_site_fract_z
 _atom_site_occupancy
  Sr  Sr0  1  0.57207454  0.55243921  0.70044419  1
  Sr  Sr1  1  0.23584981  0.89003605  0.37010485  1
  Nb  Nb2  1  0.80871552  0.24087493  0.04572699  1
  H  H3  1  0.65068467  0.52803143  0.18864577  1
  H  H4  1  0.76260630  0.96407973  0.68686297  1
  H  H5  1  0.04480962  0.48679845  0.93221942  1
  H  H6  1  0.75923486  0.96579200  0.13026224  1
  H  H7  1  0.40732282  0.21646413  0.22092415  1
  H  H8  1  0.42414485  0.22056300  0.83578136  1
  H  H9  1  0.04204202  0.48771807  0.40634806  1
