# generated using pymatgen
data_Sr2Nb2H17
_symmetry_space_group_name_H-M   'P 1'
_cell_length_a   3.83193743
_cell_length_b   7.62010643
_cell_length_c   6.11025982
_cell_angle_alpha   102.70167198
_cell_angle_beta   93.21230530
_cell_angle_gamma   85.81270378
_symmetry_Int_Tables_number   1
_chemical_formula_structural   Sr2Nb2H17
_chemical_formula_sum   'Sr2 Nb2 H17'
_cell_volume   173.44073046
_cell_formula_units_Z   1
loop_
 _symmetry_equiv_pos_site_id
 _symmetry_equiv_pos_as_xyz
  1  'x, y, z'
loop_
 _atom_site_type_symbol
 _atom_site_label
 _atom_site_symmetry_multiplicity
 _atom_site_fract_x
 _atom_site_fract_y
 _atom_site_fract_z
 _atom_site_occupancy
  Sr  Sr0  1  0.28164161  0.26865038  0.76212645  1
  Sr  Sr1  1  0.50268829  0.75862544  0.83753507  1
  Nb  Nb2  1  0.71193623  0.42653948  0.31227454  1
  Nb  Nb3  1  0.78315040  0.89945432  0.41206014  1
  H  H4  1  0.74877663  0.18184369  0.40706132  1
  H  H5  1  0.80306644  0.46364886  0.63022265  1
  H  H6  1  0.64607330  0.49434360  0.03791211  1
  H  H7  1  0.96643498  0.77154611  0.61343230  1
  H  H8  1  0.33511431  0.95724192  0.53265471  1
  H  H9  1  0.52521586  0.69070467  0.40876494  1
  H  H10  1  0.80982236  0.04019905  0.70362832  1
  H  H11  1  0.95143044  0.65947141  0.28864877  1
  H  H12  1  0.32815514  0.45722362  0.48411150  1
  H  H13  1  0.75098882  0.24349991  0.06591631  1
  H  H14  1  0.89561116  0.90104380  0.12576160  1
  H  H15  1  0.18300405  0.05170090  0.00337518  1
  H  H16  1  0.05150160  0.58195642  0.87219322  1
  H  H17  1  0.36823335  0.07838716  0.04345658  1
  H  H18  1  0.40847226  0.85902026  0.22681316  1
  H  H19  1  0.08532176  0.60330068  0.00162155  1
  H  H20  1  0.26609200  0.38210532  0.18017358  1
