# generated using pymatgen
data_Sr2NbH10
_symmetry_space_group_name_H-M   'P 1'
_cell_length_a   3.94906722
_cell_length_b   6.31142207
_cell_length_c   6.10834063
_cell_angle_alpha   90.54856955
_cell_angle_beta   89.91695821
_cell_angle_gamma   86.19903627
_symmetry_Int_Tables_number   1
_chemical_formula_structural   Sr2NbH10
_chemical_formula_sum   'Sr2 Nb1 H10'
_cell_volume   151.90350640
_cell_formula_units_Z   1
loop_
 _symmetry_equiv_pos_site_id
 _symmetry_equiv_pos_as_xyz
  1  'x, y, z'
loop_
 _atom_site_type_symbol
 _atom_site_label
 _atom_site_symmetry_multiplicity
 _atom_site_fract_x
 _atom_site_fract_y
 _atom_site_fract_z
 _atom_site_occupancy
  Sr  Sr0  1  0.63510343  0.02731252  0.17069036  1
  Sr  Sr1  1  0.63598724  0.58473352  0.74329962  1
  Nb  Nb2  1  0.13791538  0.07674536  0.66319450  1
  H  H3  1  0.94562410  0.86659543  0.51509925  1
  H  H4  1  0.40107254  0.87874898  0.51989493  1
  H  H5  1  0.10900820  0.18456019  0.95035324  1
  H  H6  1  0.15042461  0.84703164  0.86051885  1
  H  H7  1  0.11385061  0.16276283  0.37289878  1
  H  H8  1  0.14108972  0.37451520  0.64674702  1
  H  H9  1  0.62765503  0.14123790  0.72232127  1
  H  H10  1  0.43881637  0.48673530  0.16249107  1
  H  H11  1  0.28311687  0.42018443  0.15235945  1
  H  H12  1  0.75385391  0.66769471  0.10974366  1
