# generated using pymatgen
data_SrNbH13
_symmetry_space_group_name_H-M   'P 1'
_cell_length_a   3.93224033
_cell_length_b   6.14103538
_cell_length_c   6.17850854
_cell_angle_alpha   114.83995647
_cell_angle_beta   92.09905236
_cell_angle_gamma   107.22031673
_symmetry_Int_Tables_number   1
_chemical_formula_structural   SrNbH13
_chemical_formula_sum   'Sr1 Nb1 H13'
_cell_volume   127.07612852
_cell_formula_units_Z   1
loop_
 _symmetry_equiv_pos_site_id
 _symmetry_equiv_pos_as_xyz
  1  'x, y, z'
loop_
 _atom_site_type_symbol
 _atom_site_label
 _atom_site_symmetry_multiplicity
 _atom_site_fract_x
 _atom_site_fract_y
 _atom_site_fract_z
 _atom_site_occupancy
  Sr  Sr0  1  0.98476930  0.92823356  0.22422998  1
  Nb  Nb1  1  0.31584073  0.69328290  0.61190686  1
  H  H2  1  0.63573731  0.44584733  0.95224863  1
  H  H3  1  0.79071431  0.43943650  0.02364400  1
  H  H4  1  0.88727969  0.65803583  0.73553860  1
  H  H5  1  0.15306546  0.36698234  0.59378960  1
  H  H6  1  0.25374922  0.45379708  0.30434424  1
  H  H7  1  0.63707207  0.26375857  0.27845897  1
  H  H8  1  0.90809435  0.65013257  0.42895260  1
  H  H9  1  0.39557623  0.73875690  0.93640454  1
  H  H10  1  0.45641177  0.84311238  0.40821319  1
  H  H11  1  0.53240122  0.05343521  0.78304202  1
  H  H12  1  0.72391179  0.00391587  0.77691601  1
  H  H13  1  0.57724274  0.14765993  0.15362909  1
  H  H14  1  0.19921982  0.98460504  0.71694265  1
