# generated using pymatgen
data_SrNbH10
_symmetry_space_group_name_H-M   'P 1'
_cell_length_a   3.26050098
_cell_length_b   7.07659366
_cell_length_c   6.98535196
_cell_angle_alpha   54.10563215
_cell_angle_beta   75.99385924
_cell_angle_gamma   84.11776421
_symmetry_Int_Tables_number   1
_chemical_formula_structural   SrNbH10
_chemical_formula_sum   'Sr1 Nb1 H10'
_cell_volume   126.52634336
_cell_formula_units_Z   1
loop_
 _symmetry_equiv_pos_site_id
 _symmetry_equiv_pos_as_xyz
  1  'x, y, z'
loop_
 _atom_site_type_symbol
 _atom_site_label
 _atom_site_symmetry_multiplicity
 _atom_site_fract_x
 _atom_site_fract_y
 _atom_site_fract_z
 _atom_site_occupancy
  Sr  Sr0  1  0.75610405  0.59477653  0.29253542  1
  Nb  Nb1  1  0.09818914  0.18473483  0.77130707  1
  H  H2  1  0.74346930  0.88745004  0.45817293  1
  H  H3  1  0.64863341  0.76393266  0.55913683  1
  H  H4  1  0.12617505  0.50603792  0.59550853  1
  H  H5  1  0.63395050  0.01007194  0.77622981  1
  H  H6  1  0.24207536  0.26798291  0.45483242  1
  H  H7  1  0.41166718  0.53601790  -0.00437354  1
  H  H8  1  0.43381187  0.66923665  0.92493257  1
  H  H9  1  0.79224717  0.21910161  0.17247431  1
  H  H10  1  0.01560667  0.25027504  0.09165540  1
  H  H11  1  0.53760330  0.29590796  0.83292926  1
