# generated using pymatgen
data_Sr2Nb2H21
_symmetry_space_group_name_H-M   'P 1'
_cell_length_a   5.67487544
_cell_length_b   6.32117773
_cell_length_c   7.23777800
_cell_angle_alpha   79.07028076
_cell_angle_beta   91.51854712
_cell_angle_gamma   75.03962746
_symmetry_Int_Tables_number   1
_chemical_formula_structural   Sr2Nb2H21
_chemical_formula_sum   'Sr2 Nb2 H21'
_cell_volume   245.50224388
_cell_formula_units_Z   1
loop_
 _symmetry_equiv_pos_site_id
 _symmetry_equiv_pos_as_xyz
  1  'x, y, z'
loop_
 _atom_site_type_symbol
 _atom_site_label
 _atom_site_symmetry_multiplicity
 _atom_site_fract_x
 _atom_site_fract_y
 _atom_site_fract_z
 _atom_site_occupancy
  Sr  Sr0  1  0.14927977  0.30917436  0.94507598  1
  Sr  Sr1  1  0.06028186  0.49370352  0.42361749  1
  Nb  Nb2  1  0.54437100  0.63471931  0.09723587  1
  Nb  Nb3  1  0.53794578  0.60411018  0.69210735  1
  H  H4  1  0.41863807  0.93916468  0.08172925  1
  H  H5  1  0.83231842  0.40218373  0.17375580  1
  H  H6  1  0.22632225  0.61611340  0.13490806  1
  H  H7  1  0.17346079  0.05131160  0.66787656  1
  H  H8  1  0.44754920  0.89390248  0.57531517  1
  H  H9  1  0.81241864  0.37040739  0.69173253  1
  H  H10  1  0.43082037  0.35052202  0.67721629  1
  H  H11  1  0.21433897  0.69121139  0.61967683  1
  H  H12  1  0.34183450  0.74564968  0.86860710  1
  H  H13  1  0.56251620  0.41206445  0.94263432  1
  H  H14  1  0.43222406  0.24172322  0.26406574  1
  H  H15  1  0.76113620  0.75591792  0.19515916  1
  H  H16  1  0.71598474  0.70200650  0.87610931  1
  H  H17  1  0.77111652  0.72128776  0.58994520  1
  H  H18  1  0.04290306  0.12180193  0.67575047  1
  H  H19  1  0.52512144  0.57574065  0.40232555  1
  H  H20  1  0.40404967  0.12530351  0.29127200  1
  H  H21  1  0.97325555  0.96038149  0.99327229  1
  H  H22  1  0.01779841  0.97785514  0.39725665  1
  H  H23  1  0.88914782  0.03049358  0.35836305  1
  H  H24  1  0.85994871  0.05060009  0.94769298  1
