# generated using pymatgen
data_SrNbH9
_symmetry_space_group_name_H-M   'P 1'
_cell_length_a   3.89764429
_cell_length_b   5.40154065
_cell_length_c   5.33746390
_cell_angle_alpha   71.38269033
_cell_angle_beta   87.99762533
_cell_angle_gamma   82.32054696
_symmetry_Int_Tables_number   1
_chemical_formula_structural   SrNbH9
_chemical_formula_sum   'Sr1 Nb1 H9'
_cell_volume   105.53232373
_cell_formula_units_Z   1
loop_
 _symmetry_equiv_pos_site_id
 _symmetry_equiv_pos_as_xyz
  1  'x, y, z'
loop_
 _atom_site_type_symbol
 _atom_site_label
 _atom_site_symmetry_multiplicity
 _atom_site_fract_x
 _atom_site_fract_y
 _atom_site_fract_z
 _atom_site_occupancy
  Sr  Sr0  1  0.72248518  0.02224203  0.73316473  1
  Nb  Nb1  1  0.17897844  0.63473592  0.36454625  1
  H  H2  1  0.26433256  0.86382955  0.53894048  1
  H  H3  1  0.15699649  0.28461276  0.49233113  1
  H  H4  1  0.90973691  0.58812365  0.64644013  1
  H  H5  1  0.38799001  0.47564862  0.67368737  1
  H  H6  1  0.24917036  0.36916829  0.16981033  1
  H  H7  1  0.24844941  0.49717692  0.04130153  1
  H  H8  1  0.84623885  0.90912901  0.31371011  1
  H  H9  1  0.73171903  0.56506558  0.27778758  1
  H  H10  1  0.23490475  0.91113265  0.04379838  1
