# generated using pymatgen
data_Sr2NbH15
_symmetry_space_group_name_H-M   'P 1'
_cell_length_a   4.02181555
_cell_length_b   6.75058861
_cell_length_c   7.63064356
_cell_angle_alpha   61.03911577
_cell_angle_beta   74.82587737
_cell_angle_gamma   90.81016673
_symmetry_Int_Tables_number   1
_chemical_formula_structural   Sr2NbH15
_chemical_formula_sum   'Sr2 Nb1 H15'
_cell_volume   172.49105425
_cell_formula_units_Z   1
loop_
 _symmetry_equiv_pos_site_id
 _symmetry_equiv_pos_as_xyz
  1  'x, y, z'
loop_
 _atom_site_type_symbol
 _atom_site_label
 _atom_site_symmetry_multiplicity
 _atom_site_fract_x
 _atom_site_fract_y
 _atom_site_fract_z
 _atom_site_occupancy
  Sr  Sr0  1  0.80919893  0.34870886  0.13082710  1
  Sr  Sr1  1  0.41304385  0.96566612  0.90660598  1
  Nb  Nb2  1  0.06517723  0.41104763  0.51051322  1
  H  H3  1  0.92640138  0.57596550  0.27744128  1
  H  H4  1  0.61933046  0.93911581  0.23597974  1
  H  H5  1  0.40979843  0.60509767  0.26468949  1
  H  H6  1  0.54829735  0.41785453  0.59262198  1
  H  H7  1  0.26831591  0.24674828  0.39658753  1
  H  H8  1  0.03751335  0.69274759  0.56723276  1
  H  H9  1  0.11234854  0.76002613  0.44358510  1
  H  H10  1  0.93552401  0.33843574  0.79654146  1
  H  H11  1  0.30889423  0.15800268  0.10921055  1
  H  H12  1  0.50499012  0.63474337  0.78677475  1
  H  H13  1  0.32493489  0.66981861  0.79091970  1
  H  H14  1  0.89693063  0.75390010  0.91463111  1
  H  H15  1  0.04514693  0.10867431  0.68386058  1
  H  H16  1  0.80229216  0.91621489  0.24155971  1
  H  H17  1  0.79658762  0.20945716  0.49532196  1
