# generated using pymatgen
data_SrNbH9
_symmetry_space_group_name_H-M   'P 1'
_cell_length_a   3.33604240
_cell_length_b   5.70232290
_cell_length_c   6.33270679
_cell_angle_alpha   56.00368220
_cell_angle_beta   89.83784232
_cell_angle_gamma   89.86897453
_symmetry_Int_Tables_number   1
_chemical_formula_structural   SrNbH9
_chemical_formula_sum   'Sr1 Nb1 H9'
_cell_volume   99.87663234
_cell_formula_units_Z   1
loop_
 _symmetry_equiv_pos_site_id
 _symmetry_equiv_pos_as_xyz
  1  'x, y, z'
loop_
 _atom_site_type_symbol
 _atom_site_label
 _atom_site_symmetry_multiplicity
 _atom_site_fract_x
 _atom_site_fract_y
 _atom_site_fract_z
 _atom_site_occupancy
  Sr  Sr0  1  0.33845825  0.74621629  0.64389011  1
  Nb  Nb1  1  0.84154850  0.42600581  0.29851177  1
  H  H2  1  0.22950471  0.19016377  0.92899461  1
  H  H3  1  0.45230523  0.19061084  0.90472710  1
  H  H4  1  0.83833011  0.56578967  0.50845353  1
  H  H5  1  0.83868156  0.09670734  0.31456377  1
  H  H6  1  0.83830027  0.11022869  0.62265055  1
  H  H7  1  0.83911467  0.50161077  0.97133716  1
  H  H8  1  0.33830980  0.68032524  0.13715266  1
  H  H9  1  0.33612382  0.38069613  0.47934022  1
  H  H10  1  0.33787108  0.29935944  0.22765951  1
