# generated using pymatgen
data_Sr(NbH5)3
_symmetry_space_group_name_H-M   'P 1'
_cell_length_a   3.41413817
_cell_length_b   6.21995962
_cell_length_c   8.03710860
_cell_angle_alpha   88.36592012
_cell_angle_beta   80.13736343
_cell_angle_gamma   80.55282062
_symmetry_Int_Tables_number   1
_chemical_formula_structural   Sr(NbH5)3
_chemical_formula_sum   'Sr1 Nb3 H15'
_cell_volume   165.87148205
_cell_formula_units_Z   1
loop_
 _symmetry_equiv_pos_site_id
 _symmetry_equiv_pos_as_xyz
  1  'x, y, z'
loop_
 _atom_site_type_symbol
 _atom_site_label
 _atom_site_symmetry_multiplicity
 _atom_site_fract_x
 _atom_site_fract_y
 _atom_site_fract_z
 _atom_site_occupancy
  Sr  Sr0  1  0.74207558  0.99597280  0.19069731  1
  Nb  Nb1  1  0.40692699  0.00298726  0.79752492  1
  Nb  Nb2  1  0.95503519  0.29228680  0.53567577  1
  Nb  Nb3  1  0.19912512  0.72872827  0.54616856  1
  H  H4  1  0.63154429  0.89410685  0.56615981  1
  H  H5  1  0.53682757  0.26866730  0.42061978  1
  H  H6  1  0.11169658  0.99961237  0.43351624  1
  H  H7  1  0.38641471  0.83174108  0.98714966  1
  H  H8  1  0.08684027  0.27703531  0.30400827  1
  H  H9  1  0.95560289  0.50538636  0.07545595  1
  H  H10  1  0.77326130  0.56394964  0.04395956  1
  H  H11  1  0.27009202  0.16859780  -0.00422130  1
  H  H12  1  0.92662665  0.19371537  0.77653735  1
  H  H13  1  0.94002965  0.53250058  0.68260551  1
  H  H14  1  0.44524258  0.30078715  0.67492454  1
  H  H15  1  0.90675826  0.91993839  0.89055317  1
  H  H16  1  0.80585039  0.58461587  0.44675291  1
  H  H17  1  0.35121423  0.71625116  0.76795161  1
  H  H18  1  0.33567371  0.71541964  0.31238938  1
