# generated using pymatgen
data_Sr2NbH17
_symmetry_space_group_name_H-M   'P 1'
_cell_length_a   3.82812196
_cell_length_b   7.16136555
_cell_length_c   8.22013916
_cell_angle_alpha   78.22510346
_cell_angle_beta   102.28293328
_cell_angle_gamma   107.03916188
_symmetry_Int_Tables_number   1
_chemical_formula_structural   Sr2NbH17
_chemical_formula_sum   'Sr2 Nb1 H17'
_cell_volume   208.09088668
_cell_formula_units_Z   1
loop_
 _symmetry_equiv_pos_site_id
 _symmetry_equiv_pos_as_xyz
  1  'x, y, z'
loop_
 _atom_site_type_symbol
 _atom_site_label
 _atom_site_symmetry_multiplicity
 _atom_site_fract_x
 _atom_site_fract_y
 _atom_site_fract_z
 _atom_site_occupancy
  Sr  Sr0  1  0.13927198  0.85972271  0.70806005  1
  Sr  Sr1  1  0.28367665  0.47134122  0.42277419  1
  Nb  Nb2  1  0.60644237  0.02674090  0.31748006  1
  H  H3  1  0.76583367  0.66145892  0.15452632  1
  H  H4  1  0.70382470  0.55007059  0.15614480  1
  H  H5  1  0.46024919  0.24879795  0.75189489  1
  H  H6  1  0.25627126  0.23846398  0.75318666  1
  H  H7  1  0.79349818  0.95711781  0.16842781  1
  H  H8  1  0.54129232  0.08841010  0.06462130  1
  H  H9  1  0.62319640  0.61619619  0.88305289  1
  H  H10  1  0.59671567  0.54486888  0.82480652  1
  H  H11  1  0.38151794  0.13524396  0.07595577  1
  H  H12  1  0.75525729  0.94636587  0.85262594  1
  H  H13  1  0.33367012  0.79392702  0.23226722  1
  H  H14  1  0.83482005  0.11974372  0.52216683  1
  H  H15  1  0.61090564  0.29330691  0.30428557  1
  H  H16  1  0.01243477  0.92492726  0.38993959  1
  H  H17  1  0.02286146  0.19916567  0.25671387  1
  H  H18  1  0.52729166  0.82389220  0.50296657  1
  H  H19  1  0.90670866  0.52753813  0.60588813  1
