# generated using pymatgen
data_Sr2NbH11
_symmetry_space_group_name_H-M   'P 1'
_cell_length_a   3.92681340
_cell_length_b   5.76679881
_cell_length_c   6.81129752
_cell_angle_alpha   89.93794618
_cell_angle_beta   108.36478807
_cell_angle_gamma   91.50646562
_symmetry_Int_Tables_number   1
_chemical_formula_structural   Sr2NbH11
_chemical_formula_sum   'Sr2 Nb1 H11'
_cell_volume   146.33238070
_cell_formula_units_Z   1
loop_
 _symmetry_equiv_pos_site_id
 _symmetry_equiv_pos_as_xyz
  1  'x, y, z'
loop_
 _atom_site_type_symbol
 _atom_site_label
 _atom_site_symmetry_multiplicity
 _atom_site_fract_x
 _atom_site_fract_y
 _atom_site_fract_z
 _atom_site_occupancy
  Sr  Sr0  1  0.01348042  0.13727269  0.90441906  1
  Sr  Sr1  1  0.27386198  0.52323138  0.48729057  1
  Nb  Nb2  1  0.75611110  0.00728894  0.35709872  1
  H  H3  1  0.15869926  0.89877920  0.28463429  1
  H  H4  1  0.50320134  0.24936069  0.22773690  1
  H  H5  1  0.60707786  0.94664494  0.07370759  1
  H  H6  1  0.19162331  0.07433935  0.54694035  1
  H  H7  1  0.76148556  0.25526144  0.54147754  1
  H  H8  1  0.96510634  0.57717540  0.99889545  1
  H  H9  1  0.16604420  0.58513446  0.01607194  1
  H  H10  1  0.67100075  0.69284690  0.29734740  1
  H  H11  1  0.97898200  0.22599622  0.25448027  1
  H  H12  1  0.80885747  0.83617705  0.60833162  1
  H  H13  1  0.48134341  0.38002335  0.83166531  1
