# generated using pymatgen
data_SrNbH22
_symmetry_space_group_name_H-M   'P 1'
_cell_length_a   6.22783411
_cell_length_b   5.79884983
_cell_length_c   5.91138774
_cell_angle_alpha   92.91018246
_cell_angle_beta   107.19168221
_cell_angle_gamma   103.56206168
_symmetry_Int_Tables_number   1
_chemical_formula_structural   SrNbH22
_chemical_formula_sum   'Sr1 Nb1 H22'
_cell_volume   196.59610333
_cell_formula_units_Z   1
loop_
 _symmetry_equiv_pos_site_id
 _symmetry_equiv_pos_as_xyz
  1  'x, y, z'
loop_
 _atom_site_type_symbol
 _atom_site_label
 _atom_site_symmetry_multiplicity
 _atom_site_fract_x
 _atom_site_fract_y
 _atom_site_fract_z
 _atom_site_occupancy
  Sr  Sr0  1  0.86631704  0.90908982  0.85901259  1
  Nb  Nb1  1  0.89344426  0.38870929  0.33216544  1
  H  H2  1  0.00819523  0.60781969  0.62555911  1
  H  H3  1  0.22325658  0.58552313  0.38710703  1
  H  H4  1  0.35164905  0.26090208  0.97870957  1
  H  H5  1  0.24773637  0.26951899  0.87229638  1
  H  H6  1  0.37999143  0.92041160  0.66997560  1
  H  H7  1  0.45694793  0.04662412  0.70354217  1
  H  H8  1  0.61729839  0.72836038  0.42053931  1
  H  H9  1  0.59966185  0.85398316  0.43221112  1
  H  H10  1  0.18844912  0.51476603  0.25387151  1
  H  H11  1  0.94639583  0.33339060  0.04309391  1
  H  H12  1  0.71370252  0.09263406  0.17516107  1
  H  H13  1  0.60125095  0.41383382  0.29312280  1
  H  H14  1  0.86411494  0.66985243  0.19405617  1
  H  H15  1  0.44090382  0.71144910  0.03618116  1
  H  H16  1  0.33065290  0.67258554  0.93103702  1
  H  H17  1  0.58407128  0.46711059  0.66460406  1
  H  H18  1  0.52500296  0.50304290  0.75106007  1
  H  H19  1  0.10709166  0.20796030  0.51851621  1
  H  H20  1  0.05064643  0.12644465  0.38532789  1
  H  H21  1  0.24148025  0.93749532  0.24200263  1
  H  H22  1  0.33721973  0.03383471  0.22228155  1
  H  H23  1  0.76725249  0.21231970  0.53871264  1
