# generated using pymatgen
data_SrNbH14
_symmetry_space_group_name_H-M   'P 1'
_cell_length_a   4.57815746
_cell_length_b   5.37742577
_cell_length_c   6.08320891
_cell_angle_alpha   98.90336423
_cell_angle_beta   106.03524374
_cell_angle_gamma   97.84903279
_symmetry_Int_Tables_number   1
_chemical_formula_structural   SrNbH14
_chemical_formula_sum   'Sr1 Nb1 H14'
_cell_volume   139.64078748
_cell_formula_units_Z   1
loop_
 _symmetry_equiv_pos_site_id
 _symmetry_equiv_pos_as_xyz
  1  'x, y, z'
loop_
 _atom_site_type_symbol
 _atom_site_label
 _atom_site_symmetry_multiplicity
 _atom_site_fract_x
 _atom_site_fract_y
 _atom_site_fract_z
 _atom_site_occupancy
  Sr  Sr0  1  0.29507147  0.85737737  0.97836138  1
  Nb  Nb1  1  0.54594993  0.22967177  0.61097922  1
  H  H2  1  0.88160456  0.78753335  0.28066890  1
  H  H3  1  0.82755403  0.67022179  0.18026020  1
  H  H4  1  0.06016170  0.40951625  0.04048519  1
  H  H5  1  0.19338908  0.43157897  0.15279985  1
  H  H6  1  0.24850215  0.13262430  0.32910119  1
  H  H7  1  0.84074329  0.24773709  0.40843476  1
  H  H8  1  0.69659615  0.31518129  0.34804683  1
  H  H9  1  0.22819851  0.02134196  0.64955582  1
  H  H10  1  0.73956707  0.03692830  0.82403093  1
  H  H11  1  0.26447424  0.48290812  0.56026914  1
  H  H12  1  0.41934202  0.56717074  0.54648879  1
  H  H13  1  0.55568514  0.91322463  0.45848455  1
  H  H14  1  0.49179349  0.35087437  0.89466220  1
  H  H15  1  0.84027016  0.53448570  0.75089405  1
