# generated using pymatgen
data_Sr3(NbH10)2
_symmetry_space_group_name_H-M   'P 1'
_cell_length_a   5.17342407
_cell_length_b   6.38402391
_cell_length_c   7.93473137
_cell_angle_alpha   95.32624692
_cell_angle_beta   101.23231013
_cell_angle_gamma   95.96372248
_symmetry_Int_Tables_number   1
_chemical_formula_structural   Sr3(NbH10)2
_chemical_formula_sum   'Sr3 Nb2 H20'
_cell_volume   253.92875918
_cell_formula_units_Z   1
loop_
 _symmetry_equiv_pos_site_id
 _symmetry_equiv_pos_as_xyz
  1  'x, y, z'
loop_
 _atom_site_type_symbol
 _atom_site_label
 _atom_site_symmetry_multiplicity
 _atom_site_fract_x
 _atom_site_fract_y
 _atom_site_fract_z
 _atom_site_occupancy
  Sr  Sr0  1  0.11356819  0.25439015  0.88435596  1
  Sr  Sr1  1  0.68766472  0.71072442  0.95400730  1
  Sr  Sr2  1  0.97813252  0.78605210  0.50760857  1
  Nb  Nb3  1  0.70926268  0.21386952  0.23387184  1
  Nb  Nb4  1  0.40219341  0.34942781  0.49641394  1
  H  H5  1  0.29478677  0.85878140  0.80757135  1
  H  H6  1  0.39114037  0.92399697  0.76105252  1
  H  H7  1  0.53392565  0.61836689  0.58904846  1
  H  H8  1  0.57841207  0.32865239  0.03687238  1
  H  H9  1  0.84826821  0.92857323  0.75759257  1
  H  H10  1  0.86483855  0.09256404  0.06606159  1
  H  H11  1  0.37150404  0.29108352  0.24683372  1
  H  H12  1  0.05131037  0.20289793  0.39236969  1
  H  H13  1  0.20062728  0.74932302  0.23992582  1
  H  H14  1  0.20024895  0.86799680  0.23688467  1
  H  H15  1  0.45574859  0.03201122  0.08627759  1
  H  H16  1  0.91645693  0.43619343  0.17802976  1
  H  H17  1  0.71089626  0.44360066  0.41205516  1
  H  H18  1  0.75860956  0.93773191  0.25012620  1
  H  H19  1  0.62934775  0.35906809  0.71363367  1
  H  H20  1  0.58940374  0.11091183  0.43095465  1
  H  H21  1  0.28035380  0.13867105  0.61199810  1
  H  H22  1  0.25057305  0.55078211  0.39284292  1
  H  H23  1  0.16311265  0.63546472  0.93201361  1
  H  H24  1  0.19991987  0.46496977  0.64073795  1
