# generated using pymatgen
data_Sr(NbH6)3
_symmetry_space_group_name_H-M   'P 1'
_cell_length_a   3.47106497
_cell_length_b   8.10682473
_cell_length_c   6.60996015
_cell_angle_alpha   72.13105141
_cell_angle_beta   88.23402992
_cell_angle_gamma   79.50050222
_symmetry_Int_Tables_number   1
_chemical_formula_structural   Sr(NbH6)3
_chemical_formula_sum   'Sr1 Nb3 H18'
_cell_volume   174.00061719
_cell_formula_units_Z   1
loop_
 _symmetry_equiv_pos_site_id
 _symmetry_equiv_pos_as_xyz
  1  'x, y, z'
loop_
 _atom_site_type_symbol
 _atom_site_label
 _atom_site_symmetry_multiplicity
 _atom_site_fract_x
 _atom_site_fract_y
 _atom_site_fract_z
 _atom_site_occupancy
  Sr  Sr0  1  0.34043488  0.31462089  0.80592147  1
  Nb  Nb1  1  0.68952064  0.67139501  0.94307877  1
  Nb  Nb2  1  0.70256880  0.68313365  0.43232967  1
  Nb  Nb3  1  0.09778788  0.98560799  0.57221492  1
  H  H4  1  0.99951037  0.10327398  0.76445486  1
  H  H5  1  0.07493550  0.81243827  0.89293393  1
  H  H6  1  0.20617273  0.55541337  0.01524246  1
  H  H7  1  -0.00018674  0.21407848  0.46220867  1
  H  H8  1  0.78878142  0.45164596  0.57135180  1
  H  H9  1  0.96299696  0.66576567  0.69124276  1
  H  H10  1  0.53166791  0.91648129  0.76469032  1
  H  H11  1  0.50676655  0.12035550  0.52800456  1
  H  H12  1  0.22993119  0.56960611  0.43914866  1
  H  H13  1  0.85067001  0.09476342  0.11376755  1
  H  H14  1  0.84129832  0.06250423  0.01561375  1
  H  H15  1  0.56459729  0.92933922  0.43421211  1
  H  H16  1  0.10372780  0.82589402  0.37717902  1
  H  H17  1  0.77306548  0.43251316  -0.01468259  1
  H  H18  1  0.46434524  0.64051215  0.70004482  1
  H  H19  1  0.11097639  0.10844141  0.29994876  1
  H  H20  1  0.74524504  0.54396685  0.24170539  1
  H  H21  1  0.60571936  0.81276038  0.13057735  1
