# generated using pymatgen
data_Sr2NbH17
_symmetry_space_group_name_H-M   'P 1'
_cell_length_a   3.94912724
_cell_length_b   5.59468258
_cell_length_c   8.95380400
_cell_angle_alpha   79.19157585
_cell_angle_beta   73.92886965
_cell_angle_gamma   90.02358135
_symmetry_Int_Tables_number   1
_chemical_formula_structural   Sr2NbH17
_chemical_formula_sum   'Sr2 Nb1 H17'
_cell_volume   186.43558278
_cell_formula_units_Z   1
loop_
 _symmetry_equiv_pos_site_id
 _symmetry_equiv_pos_as_xyz
  1  'x, y, z'
loop_
 _atom_site_type_symbol
 _atom_site_label
 _atom_site_symmetry_multiplicity
 _atom_site_fract_x
 _atom_site_fract_y
 _atom_site_fract_z
 _atom_site_occupancy
  Sr  Sr0  1  0.32034434  0.17605205  0.79097370  1
  Sr  Sr1  1  0.09862774  0.20112394  0.36818012  1
  Nb  Nb2  1  0.78392096  0.59161673  0.04735018  1
  H  H3  1  0.92090245  0.29341392  0.62971258  1
  H  H4  1  0.38713905  0.59879367  0.60938068  1
  H  H5  1  0.57091628  0.54977474  0.59468765  1
  H  H6  1  0.16085339  0.69851810  0.88492619  1
  H  H7  1  0.85079771  0.88716938  0.12262473  1
  H  H8  1  0.06446079  0.84608801  0.09617811  1
  H  H9  1  0.71339610  0.25876812  0.11120046  1
  H  H10  1  0.23828443  0.47829156  0.08165120  1
  H  H11  1  0.78028229  0.45106182  0.87662688  1
  H  H12  1  0.71603247  0.86052981  0.90318579  1
  H  H13  1  0.69970279  0.50030418  0.26334266  1
  H  H14  1  0.50740868  0.80376421  0.14691827  1
  H  H15  1  0.02330413  0.85738625  0.61685038  1
  H  H16  1  0.83402029  0.86763592  0.61152953  1
  H  H17  1  0.50855716  0.06485094  0.50715544  1
  H  H18  1  0.19651705  0.67965063  0.36025797  1
  H  H19  1  0.05880192  0.64912303  0.44044949  1
