# generated using pymatgen
data_Sr2NbH11
_symmetry_space_group_name_H-M   'P 1'
_cell_length_a   4.03687611
_cell_length_b   6.12465819
_cell_length_c   6.50524022
_cell_angle_alpha   90.06710582
_cell_angle_beta   74.07593468
_cell_angle_gamma   86.33480485
_symmetry_Int_Tables_number   1
_chemical_formula_structural   Sr2NbH11
_chemical_formula_sum   'Sr2 Nb1 H11'
_cell_volume   154.32103431
_cell_formula_units_Z   1
loop_
 _symmetry_equiv_pos_site_id
 _symmetry_equiv_pos_as_xyz
  1  'x, y, z'
loop_
 _atom_site_type_symbol
 _atom_site_label
 _atom_site_symmetry_multiplicity
 _atom_site_fract_x
 _atom_site_fract_y
 _atom_site_fract_z
 _atom_site_occupancy
  Sr  Sr0  1  0.57076263  0.78147807  0.28557339  1
  Sr  Sr1  1  0.87883921  0.15304010  0.73126913  1
  Nb  Nb2  1  0.16501348  0.30822564  0.20084453  1
  H  H3  1  0.76034114  0.70903331  0.80238906  1
  H  H4  1  0.93679290  0.68747293  0.82541735  1
  H  H5  1  0.29254709  0.35835475  0.90640840  1
  H  H6  1  0.34626898  0.14945312  0.37752998  1
  H  H7  1  0.91448641  0.08815761  0.34098053  1
  H  H8  1  0.31431218  0.04171392  0.05043036  1
  H  H9  1  0.82331120  0.41882325  0.42847485  1
  H  H10  1  0.43989025  0.91719735  0.64733646  1
  H  H11  1  0.69444761  0.33843743  0.11589640  1
  H  H12  1  0.27838014  0.44726614  0.40957904  1
  H  H13  1  0.13990379  0.60841437  0.14791252  1
