# generated using pymatgen
data_SrNbH14
_symmetry_space_group_name_H-M   'P 1'
_cell_length_a   3.84746395
_cell_length_b   5.93530210
_cell_length_c   7.41744958
_cell_angle_alpha   114.21996365
_cell_angle_beta   95.65910386
_cell_angle_gamma   89.91257115
_symmetry_Int_Tables_number   1
_chemical_formula_structural   SrNbH14
_chemical_formula_sum   'Sr1 Nb1 H14'
_cell_volume   153.57985547
_cell_formula_units_Z   1
loop_
 _symmetry_equiv_pos_site_id
 _symmetry_equiv_pos_as_xyz
  1  'x, y, z'
loop_
 _atom_site_type_symbol
 _atom_site_label
 _atom_site_symmetry_multiplicity
 _atom_site_fract_x
 _atom_site_fract_y
 _atom_site_fract_z
 _atom_site_occupancy
  Sr  Sr0  1  0.58199091  0.10527278  0.59154902  1
  Nb  Nb1  1  0.10652987  0.64280057  0.68506514  1
  H  H2  1  0.40697580  0.23649500  0.27509794  1
  H  H3  1  0.52644868  0.14085955  0.21390051  1
  H  H4  1  0.73926133  0.23196164  0.01062188  1
  H  H5  1  0.18038935  0.87124596  0.98145718  1
  H  H6  1  0.97012174  0.84507417  0.96217859  1
  H  H7  1  0.06859009  0.31500300  0.49955808  1
  H  H8  1  0.08095201  0.63470467  0.43384414  1
  H  H9  1  0.82714318  0.33832609  -0.00104251  1
  H  H10  1  0.72011525  0.71718330  0.25176907  1
  H  H11  1  0.59769072  0.75826013  0.18580009  1
  H  H12  1  0.37098797  0.50219697  0.82021349  1
  H  H13  1  0.90870663  0.47578642  0.80262880  1
  H  H14  1  0.10818991  0.97087819  0.70949671  1
  H  H15  1  0.59230757  0.65700255  0.61378686  1
