# generated using pymatgen
data_Sr2NbH7
_symmetry_space_group_name_H-M   'P 1'
_cell_length_a   3.83821250
_cell_length_b   5.37749090
_cell_length_c   8.29646084
_cell_angle_alpha   71.56004444
_cell_angle_beta   47.28094415
_cell_angle_gamma   90.65507194
_symmetry_Int_Tables_number   1
_chemical_formula_structural   Sr2NbH7
_chemical_formula_sum   'Sr2 Nb1 H7'
_cell_volume   112.89779087
_cell_formula_units_Z   1
loop_
 _symmetry_equiv_pos_site_id
 _symmetry_equiv_pos_as_xyz
  1  'x, y, z'
loop_
 _atom_site_type_symbol
 _atom_site_label
 _atom_site_symmetry_multiplicity
 _atom_site_fract_x
 _atom_site_fract_y
 _atom_site_fract_z
 _atom_site_occupancy
  Sr  Sr0  1  0.64861636  0.24765815  0.95787513  1
  Sr  Sr1  1  0.57325838  0.56005468  0.33316079  1
  Nb  Nb2  1  0.64491313  0.85981086  0.64598068  1
  H  H3  1  0.14661683  0.54157731  0.95312277  1
  H  H4  1  0.67349289  0.51822825  0.64449004  1
  H  H5  1  0.81149374  0.78338898  0.82431255  1
  H  H6  1  0.22472999  0.99015617  0.90277188  1
  H  H7  1  0.04934879  0.85080841  0.33721442  1
  H  H8  1  0.33904923  0.95975332  0.46399553  1
  H  H9  1  0.98479666  0.24759087  0.38776421  1
