# generated using pymatgen
data_SrNb2H7
_symmetry_space_group_name_H-M   'P 1'
_cell_length_a   3.42661426
_cell_length_b   3.42674010
_cell_length_c   7.91332694
_cell_angle_alpha   77.56255230
_cell_angle_beta   102.45194750
_cell_angle_gamma   89.96990766
_symmetry_Int_Tables_number   1
_chemical_formula_structural   SrNb2H7
_chemical_formula_sum   'Sr1 Nb2 H7'
_cell_volume   88.49659825
_cell_formula_units_Z   1
loop_
 _symmetry_equiv_pos_site_id
 _symmetry_equiv_pos_as_xyz
  1  'x, y, z'
loop_
 _atom_site_type_symbol
 _atom_site_label
 _atom_site_symmetry_multiplicity
 _atom_site_fract_x
 _atom_site_fract_y
 _atom_site_fract_z
 _atom_site_occupancy
  Sr  Sr0  1  0.65117826  0.87761861  0.34507746  1
  Nb  Nb1  1  0.96329583  0.56605781  0.97042986  1
  Nb  Nb2  1  0.32757713  0.20110174  0.69844268  1
  H  H3  1  0.53462166  0.49390397  0.11368096  1
  H  H4  1  0.39835939  0.63116472  0.83980338  1
  H  H5  1  0.89763407  0.13100865  0.83983781  1
  H  H6  1  0.76877711  0.25986701  0.58045166  1
  H  H7  1  0.19765152  0.33081435  0.43737790  1
  H  H8  1  0.03561396  0.99521926  0.11367265  1
  H  H9  1  0.26809307  0.75962989  0.58046564  1
