# generated using pymatgen
data_SrNbH15
_symmetry_space_group_name_H-M   'P 1'
_cell_length_a   6.06752294
_cell_length_b   5.41088117
_cell_length_c   5.25705078
_cell_angle_alpha   104.61366599
_cell_angle_beta   91.56315255
_cell_angle_gamma   88.26593668
_symmetry_Int_Tables_number   1
_chemical_formula_structural   SrNbH15
_chemical_formula_sum   'Sr1 Nb1 H15'
_cell_volume   166.89792322
_cell_formula_units_Z   1
loop_
 _symmetry_equiv_pos_site_id
 _symmetry_equiv_pos_as_xyz
  1  'x, y, z'
loop_
 _atom_site_type_symbol
 _atom_site_label
 _atom_site_symmetry_multiplicity
 _atom_site_fract_x
 _atom_site_fract_y
 _atom_site_fract_z
 _atom_site_occupancy
  Sr  Sr0  1  0.63987557  0.53371560  0.28685707  1
  Nb  Nb1  1  0.42349505  0.17346302  0.68797582  1
  H  H2  1  0.92895669  0.17186554  0.19571264  1
  H  H3  1  0.03232693  0.25284108  0.21884287  1
  H  H4  1  0.34672050  0.43208090  0.97521743  1
  H  H5  1  0.62599015  0.12862638  0.94038290  1
  H  H6  1  0.10240374  0.24080783  0.67083689  1
  H  H7  1  0.46918580  0.83750700  0.64690278  1
  H  H8  1  0.11864093  0.13950644  0.77048716  1
  H  H9  1  0.33452546  0.03980869  0.30742532  1
  H  H10  1  0.30692996  0.92421537  0.37251138  1
  H  H11  1  0.29195249  0.03667475  0.91752592  1
  H  H12  1  0.93091213  0.76362275  0.97459607  1
  H  H13  1  0.02902733  0.67863365  0.98278895  1
  H  H14  1  0.33030793  0.39178382  0.48555127  1
  H  H15  1  0.62924721  0.41998969  0.74548031  1
  H  H16  1  0.66645413  0.06717245  0.46976221  1
