# generated using pymatgen
data_SrNbH16
_symmetry_space_group_name_H-M   'P 1'
_cell_length_a   5.38199848
_cell_length_b   5.34111725
_cell_length_c   6.08942332
_cell_angle_alpha   93.89883206
_cell_angle_beta   90.84894524
_cell_angle_gamma   103.64628579
_symmetry_Int_Tables_number   1
_chemical_formula_structural   SrNbH16
_chemical_formula_sum   'Sr1 Nb1 H16'
_cell_volume   169.62478235
_cell_formula_units_Z   1
loop_
 _symmetry_equiv_pos_site_id
 _symmetry_equiv_pos_as_xyz
  1  'x, y, z'
loop_
 _atom_site_type_symbol
 _atom_site_label
 _atom_site_symmetry_multiplicity
 _atom_site_fract_x
 _atom_site_fract_y
 _atom_site_fract_z
 _atom_site_occupancy
  Sr  Sr0  1  0.15608188  0.70149367  0.36311059  1
  Nb  Nb1  1  0.74300813  0.07099222  0.18163041  1
  H  H2  1  0.32294107  0.50401373  0.77354776  1
  H  H3  1  0.27202118  0.39278849  0.68701481  1
  H  H4  1  0.93618132  0.20925274  0.90553549  1
  H  H5  1  0.83628125  0.08936049  0.84346029  1
  H  H6  1  0.08706265  0.15636503  0.25434167  1
  H  H7  1  0.33208701  0.95500095  0.80207668  1
  H  H8  1  0.32836063  0.03263679  0.70236214  1
  H  H9  1  0.51014909  0.30274156  0.09103649  1
  H  H10  1  0.64310240  0.41112893  0.11076507  1
  H  H11  1  0.82921805  0.62714316  0.76883819  1
  H  H12  1  0.79662922  0.52497483  0.67301946  1
  H  H13  1  0.82152078  0.30150676  0.41927261  1
  H  H14  1  0.48469790  0.08933051  0.36262000  1
  H  H15  1  0.46806464  0.79386260  0.07600606  1
  H  H16  1  0.88230872  0.80155183  0.08667081  1
  H  H17  1  0.74632608  0.86897173  0.41046146  1
