# generated using pymatgen
data_Sr2NbH16
_symmetry_space_group_name_H-M   'P 1'
_cell_length_a   6.88816391
_cell_length_b   4.46603411
_cell_length_c   5.92999868
_cell_angle_alpha   93.61749391
_cell_angle_beta   93.84845177
_cell_angle_gamma   99.22449429
_symmetry_Int_Tables_number   1
_chemical_formula_structural   Sr2NbH16
_chemical_formula_sum   'Sr2 Nb1 H16'
_cell_volume   179.15217255
_cell_formula_units_Z   1
loop_
 _symmetry_equiv_pos_site_id
 _symmetry_equiv_pos_as_xyz
  1  'x, y, z'
loop_
 _atom_site_type_symbol
 _atom_site_label
 _atom_site_symmetry_multiplicity
 _atom_site_fract_x
 _atom_site_fract_y
 _atom_site_fract_z
 _atom_site_occupancy
  Sr  Sr0  1  0.12061465  0.26150102  0.98822289  1
  Sr  Sr1  1  0.51509713  0.82586804  0.65611661  1
  Nb  Nb2  1  0.99067200  0.71296698  0.49270382  1
  H  H3  1  0.74519775  0.03887722  0.03547318  1
  H  H4  1  0.47554337  0.71774306  0.10088411  1
  H  H5  1  0.45301215  0.32212355  0.84877456  1
  H  H6  1  0.70755222  0.18015366  0.99378364  1
  H  H7  1  0.40287508  0.82913025  0.10463851  1
  H  H8  1  0.42078102  0.25963860  0.37482485  1
  H  H9  1  0.52094422  0.31015061  0.33134777  1
  H  H10  1  0.81034817  0.51215577  0.67765026  1
  H  H11  1  0.85512884  0.36938902  0.29935259  1
  H  H12  1  0.90809951  0.25030760  0.38434663  1
  H  H13  1  0.15147989  0.70181551  0.76946163  1
  H  H14  1  0.90980070  0.98178572  0.69437702  1
  H  H15  1  0.21919200  0.58951084  0.39432963  1
  H  H16  1  0.00462619  0.77069605  0.18146639  1
  H  H17  1  0.74450553  0.76003543  0.36353599  1
  H  H18  1  0.19111557  0.04540607  0.52839494  1
