# generated using pymatgen
data_SrNbH18
_symmetry_space_group_name_H-M   'P 1'
_cell_length_a   3.57136566
_cell_length_b   8.47876432
_cell_length_c   6.07886664
_cell_angle_alpha   90.74329199
_cell_angle_beta   90.50179135
_cell_angle_gamma   100.67777660
_symmetry_Int_Tables_number   1
_chemical_formula_structural   SrNbH18
_chemical_formula_sum   'Sr1 Nb1 H18'
_cell_volume   180.85859095
_cell_formula_units_Z   1
loop_
 _symmetry_equiv_pos_site_id
 _symmetry_equiv_pos_as_xyz
  1  'x, y, z'
loop_
 _atom_site_type_symbol
 _atom_site_label
 _atom_site_symmetry_multiplicity
 _atom_site_fract_x
 _atom_site_fract_y
 _atom_site_fract_z
 _atom_site_occupancy
  Sr  Sr0  1  0.40775562  0.94913033  0.22583813  1
  Nb  Nb1  1  0.96698890  0.02036291  0.73283697  1
  H  H2  1  0.85433238  0.83658289  0.56324341  1
  H  H3  1  0.15938506  0.60743537  0.50582970  1
  H  H4  1  0.47817278  0.28707363  0.33951385  1
  H  H5  1  0.61282406  0.30951303  0.24497864  1
  H  H6  1  0.13610914  0.41835313  0.06972503  1
  H  H7  1  0.72214600  0.66063648  0.13530874  1
  H  H8  1  0.10056503  0.49142154  0.01378098  1
  H  H9  1  0.70913869  0.64357247  0.25689547  1
  H  H10  1  0.67254179  0.57285290  0.74947510  1
  H  H11  1  0.62027833  0.48256886  0.75928758  1
  H  H12  1  0.96516695  0.07349717  0.42929515  1
  H  H13  1  0.14736331  0.26874232  0.71281976  1
  H  H14  1  0.43555980  0.10165324  0.86502200  1
  H  H15  1  0.94395851  0.08224957  0.03606386  1
  H  H16  1  0.89588066  0.83885770  0.90718219  1
  H  H17  1  0.37727435  0.93951633  0.62959170  1
  H  H18  1  0.91888716  0.25966982  0.70760479  1
  H  H19  1  0.18960847  0.54273230  0.42721397  1
