# generated using pymatgen
data_Sr(NbH4)2
_symmetry_space_group_name_H-M   'P 1'
_cell_length_a   3.34431472
_cell_length_b   5.49341393
_cell_length_c   6.11784701
_cell_angle_alpha   99.71067403
_cell_angle_beta   90.13910221
_cell_angle_gamma   72.43160643
_symmetry_Int_Tables_number   1
_chemical_formula_structural   Sr(NbH4)2
_chemical_formula_sum   'Sr1 Nb2 H8'
_cell_volume   105.47690311
_cell_formula_units_Z   1
loop_
 _symmetry_equiv_pos_site_id
 _symmetry_equiv_pos_as_xyz
  1  'x, y, z'
loop_
 _atom_site_type_symbol
 _atom_site_label
 _atom_site_symmetry_multiplicity
 _atom_site_fract_x
 _atom_site_fract_y
 _atom_site_fract_z
 _atom_site_occupancy
  Sr  Sr0  1  0.17341267  0.69645522  0.71436866  1
  Nb  Nb1  1  0.53515775  0.97428735  0.29467807  1
  Nb  Nb2  1  0.84728845  0.35055152  0.10626717  1
  H  H3  1  0.66974113  0.70495642  0.04922529  1
  H  H4  1  0.47762554  0.10257064  0.01184978  1
  H  H5  1  0.29719374  0.45146278  0.99953432  1
  H  H6  1  0.12313689  0.79665284  0.31991186  1
  H  H7  1  0.93671885  0.17497310  0.37593095  1
  H  H8  1  0.34027783  0.37142210  0.30433954  1
  H  H9  1  0.84248131  0.35576249  0.80178867  1
  H  H10  1  0.54323285  0.95856352  0.59770270  1
