# generated using pymatgen
data_SrNbH7
_symmetry_space_group_name_H-M   'P 1'
_cell_length_a   3.75165256
_cell_length_b   5.87794426
_cell_length_c   7.22253729
_cell_angle_alpha   89.18192548
_cell_angle_beta   103.40736952
_cell_angle_gamma   89.92823414
_symmetry_Int_Tables_number   1
_chemical_formula_structural   SrNbH7
_chemical_formula_sum   'Sr2 Nb2 H14'
_cell_volume   154.91315542
_cell_formula_units_Z   2
loop_
 _symmetry_equiv_pos_site_id
 _symmetry_equiv_pos_as_xyz
  1  'x, y, z'
loop_
 _atom_site_type_symbol
 _atom_site_label
 _atom_site_symmetry_multiplicity
 _atom_site_fract_x
 _atom_site_fract_y
 _atom_site_fract_z
 _atom_site_occupancy
  Sr  Sr0  1  0.62469910  0.18742574  0.61824284  1
  Sr  Sr1  1  0.27157741  0.67784177  0.98647622  1
  Nb  Nb2  1  0.99069344  0.69030144  0.46522565  1
  Nb  Nb3  1  0.91703629  0.18282451  0.14406870  1
  H  H4  1  0.03398039  0.38261432  0.43859735  1
  H  H5  1  0.37747443  0.29121083  0.23698461  1
  H  H6  1  0.54929976  0.83573226  0.41037742  1
  H  H7  1  0.75134308  0.70541296  0.65295108  1
  H  H8  1  0.18009859  0.51219576  0.67803957  1
  H  H9  1  0.17776817  0.89372649  0.66840264  1
  H  H10  1  0.76578975  0.00741793  0.93054555  1
  H  H11  1  0.84214230  0.88181898  0.17399254  1
  H  H12  1  0.30805555  0.01796366  0.14234937  1
  H  H13  1  0.04730224  0.04878121  0.39878746  1
  H  H14  1  0.56479560  0.53490975  0.43451694  1
  H  H15  1  0.16382943  0.25030390  0.96703574  1
  H  H16  1  0.70559735  0.38857693  0.94132552  1
  H  H17  1  0.86248613  0.55077159  0.21076280  1
