# generated using pymatgen
data_Sr6NbH16
_symmetry_space_group_name_H-M   'P 1'
_cell_length_a   7.56326566
_cell_length_b   8.36907673
_cell_length_c   7.11255153
_cell_angle_alpha   72.72960688
_cell_angle_beta   61.20270897
_cell_angle_gamma   54.91949330
_symmetry_Int_Tables_number   1
_chemical_formula_structural   Sr6NbH16
_chemical_formula_sum   'Sr6 Nb1 H16'
_cell_volume   322.73561564
_cell_formula_units_Z   1
loop_
 _symmetry_equiv_pos_site_id
 _symmetry_equiv_pos_as_xyz
  1  'x, y, z'
loop_
 _atom_site_type_symbol
 _atom_site_label
 _atom_site_symmetry_multiplicity
 _atom_site_fract_x
 _atom_site_fract_y
 _atom_site_fract_z
 _atom_site_occupancy
  Sr  Sr0  1  0.52889522  0.58152853  0.20385982  1
  Sr  Sr1  1  0.78089227  0.91829548  0.66068882  1
  Sr  Sr2  1  0.67308679  0.03461518  0.16414844  1
  Sr  Sr3  1  0.29462033  0.93790822  0.68839713  1
  Sr  Sr4  1  0.21763454  0.47576364  0.85251874  1
  Sr  Sr5  1  0.86001360  0.46082155  0.58745876  1
  Nb  Nb6  1  0.10390782  0.12842347  0.21546058  1
  H  H7  1  0.12031391  0.90572510  0.16260249  1
  H  H8  1  0.33857585  0.91754014  0.30381742  1
  H  H9  1  0.78968069  0.71957243  0.01605836  1
  H  H10  1  0.01891595  0.22989494  0.96609115  1
  H  H11  1  0.01017790  0.85810939  0.84730875  1
  H  H12  1  0.38553541  0.11502105  0.97790827  1
  H  H13  1  0.58286386  0.71697970  0.83504409  1
  H  H14  1  0.78989694  0.20316168  0.30652797  1
  H  H15  1  0.42179712  0.18329272  0.56094312  1
  H  H16  1  0.71339182  0.79721995  0.44627448  1
  H  H17  1  0.96050942  0.13175224  0.52021738  1
  H  H18  1  0.94284548  0.40064307  0.22147179  1
  H  H19  1  0.11443632  0.59229559  0.53678741  1
  H  H20  1  0.56633553  0.36569238  0.95170747  1
  H  H21  1  0.47977146  0.59785309  0.57645343  1
  H  H22  1  0.23056678  0.20269949  0.31760912  1
