# generated using pymatgen
data_SrNbH12
_symmetry_space_group_name_H-M   'P 1'
_cell_length_a   5.19541526
_cell_length_b   4.34119465
_cell_length_c   6.09141172
_cell_angle_alpha   85.60424584
_cell_angle_beta   70.96256855
_cell_angle_gamma   88.38635216
_symmetry_Int_Tables_number   1
_chemical_formula_structural   SrNbH12
_chemical_formula_sum   'Sr1 Nb1 H12'
_cell_volume   129.49050330
_cell_formula_units_Z   1
loop_
 _symmetry_equiv_pos_site_id
 _symmetry_equiv_pos_as_xyz
  1  'x, y, z'
loop_
 _atom_site_type_symbol
 _atom_site_label
 _atom_site_symmetry_multiplicity
 _atom_site_fract_x
 _atom_site_fract_y
 _atom_site_fract_z
 _atom_site_occupancy
  Sr  Sr0  1  0.78074934  0.91979745  0.63876709  1
  Nb  Nb1  1  0.39524231  0.55636991  0.33524446  1
  H  H2  1  0.10713037  -0.00302787  0.95853326  1
  H  H3  1  0.13957893  0.11888405  0.85890938  1
  H  H4  1  0.09322685  0.52556988  0.19097089  1
  H  H5  1  0.19799452  0.39888209  0.12198876  1
  H  H6  1  0.55490935  0.68821381  0.02656948  1
  H  H7  1  0.69968840  0.29712950  0.16476998  1
  H  H8  1  0.51955893  0.40649962  0.57728525  1
  H  H9  1  0.60890306  0.13792976  0.22168380  1
  H  H10  1  0.17255196  0.87436393  0.30114886  1
  H  H11  1  0.72718721  0.71456241  0.29494202  1
  H  H12  1  0.06614470  0.41473438  0.56922689  1
  H  H13  1  0.31682608  0.80496809  0.56939886  1
