# generated using pymatgen
data_SrNbH6
_symmetry_space_group_name_H-M   'P 1'
_cell_length_a   3.17390514
_cell_length_b   3.91923805
_cell_length_c   6.62510878
_cell_angle_alpha   106.04909400
_cell_angle_beta   91.41839552
_cell_angle_gamma   88.59974656
_symmetry_Int_Tables_number   1
_chemical_formula_structural   SrNbH6
_chemical_formula_sum   'Sr1 Nb1 H6'
_cell_volume   79.16212358
_cell_formula_units_Z   1
loop_
 _symmetry_equiv_pos_site_id
 _symmetry_equiv_pos_as_xyz
  1  'x, y, z'
loop_
 _atom_site_type_symbol
 _atom_site_label
 _atom_site_symmetry_multiplicity
 _atom_site_fract_x
 _atom_site_fract_y
 _atom_site_fract_z
 _atom_site_occupancy
  Sr  Sr0  1  0.16712198  0.70738075  0.73918947  1
  Nb  Nb1  1  0.65650645  0.03491251  0.32779063  1
  H  H2  1  0.14497138  0.34778960  0.36881702  1
  H  H3  1  0.16813980  0.86476914  0.43031028  1
  H  H4  1  0.02911370  0.31450907  0.95598929  1
  H  H5  1  0.28771887  0.30866307  0.96437698  1
  H  H6  1  0.66900861  0.18667380  0.62573446  1
  H  H7  1  0.14875421  0.88863207  0.13621386  1
