# generated using pymatgen
data_SrNb2H21
_symmetry_space_group_name_H-M   'P 1'
_cell_length_a   5.91847609
_cell_length_b   6.14248437
_cell_length_c   6.41289917
_cell_angle_alpha   96.38515133
_cell_angle_beta   93.29435025
_cell_angle_gamma   77.58274730
_symmetry_Int_Tables_number   1
_chemical_formula_structural   SrNb2H21
_chemical_formula_sum   'Sr1 Nb2 H21'
_cell_volume   226.13426597
_cell_formula_units_Z   1
loop_
 _symmetry_equiv_pos_site_id
 _symmetry_equiv_pos_as_xyz
  1  'x, y, z'
loop_
 _atom_site_type_symbol
 _atom_site_label
 _atom_site_symmetry_multiplicity
 _atom_site_fract_x
 _atom_site_fract_y
 _atom_site_fract_z
 _atom_site_occupancy
  Sr  Sr0  1  0.56400954  0.04045321  0.38539154  1
  Nb  Nb1  1  0.97580423  0.46861231  0.52676917  1
  Nb  Nb2  1  0.11150180  0.89826666  0.63187547  1
  H  H3  1  0.19893544  0.92472864  0.37837230  1
  H  H4  1  0.87006546  0.27038623  0.31783944  1
  H  H5  1  0.17673107  0.18984293  0.61676374  1
  H  H6  1  0.22962852  0.36165323  0.36300715  1
  H  H7  1  0.41705150  0.90442963  0.69085939  1
  H  H8  1  0.05885735  0.08525657  0.92873189  1
  H  H9  1  0.18617776  0.01076419  0.94031634  1
  H  H10  1  0.74987013  0.59800841  0.35007212  1
  H  H11  1  0.64371198  0.47742347  0.56577537  1
  H  H12  1  0.84193515  0.09906458  0.67281879  1
  H  H13  1  0.70579145  0.45147830  0.68424169  1
  H  H14  1  0.21100120  0.58823644  0.70424708  1
  H  H15  1  0.08211129  0.68877348  0.39708328  1
  H  H16  1  0.42181687  0.70717642  0.03547559  1
  H  H17  1  0.43972818  0.66272983  0.14141369  1
  H  H18  1  0.47897117  0.25468313  0.96066206  1
  H  H19  1  0.59037123  0.28042906  0.01047686  1
  H  H20  1  0.79702073  0.85917494  0.01281873  1
  H  H21  1  0.84952277  0.78468002  0.09620289  1
  H  H22  1  0.93869798  0.45652782  0.79707352  1
  H  H23  1  0.84681019  0.75893448  0.64918890  1
