# generated using pymatgen
data_Sr2NbH13
_symmetry_space_group_name_H-M   'P 1'
_cell_length_a   3.93600001
_cell_length_b   6.76303537
_cell_length_c   7.23364873
_cell_angle_alpha   111.73481957
_cell_angle_beta   103.89359882
_cell_angle_gamma   90.81869417
_symmetry_Int_Tables_number   1
_chemical_formula_structural   Sr2NbH13
_chemical_formula_sum   'Sr2 Nb1 H13'
_cell_volume   172.49151336
_cell_formula_units_Z   1
loop_
 _symmetry_equiv_pos_site_id
 _symmetry_equiv_pos_as_xyz
  1  'x, y, z'
loop_
 _atom_site_type_symbol
 _atom_site_label
 _atom_site_symmetry_multiplicity
 _atom_site_fract_x
 _atom_site_fract_y
 _atom_site_fract_z
 _atom_site_occupancy
  Sr  Sr0  1  0.34958249  0.87699573  0.16785778  1
  Sr  Sr1  1  0.96389569  0.47781893  0.39852189  1
  Nb  Nb2  1  0.64842278  0.91776926  0.75009649  1
  H  H3  1  0.73078578  0.75533727  0.90627289  1
  H  H4  1  0.19660030  0.82875379  0.78109146  1
  H  H5  1  0.54695702  0.62956325  0.60688218  1
  H  H6  1  0.75223106  0.84906362  0.50906751  1
  H  H7  1  0.66942614  0.21164549  0.74748573  1
  H  H8  1  0.85436055  0.17703191  0.71887150  1
  H  H9  1  0.36256423  0.12483730  0.81001980  1
  H  H10  1  0.29301122  0.87977697  0.52591666  1
  H  H11  1  0.44719859  0.25477086  0.37053002  1
  H  H12  1  0.35079006  0.44964533  0.02772925  1
  H  H13  1  0.16190409  0.46983395  0.03616406  1
  H  H14  1  0.85230928  0.67147957  0.18451663  1
  H  H15  1  0.82142873  0.09762178  0.04053514  1
