# generated using pymatgen
data_Sr2Nb3H13
_symmetry_space_group_name_H-M   'P 1'
_cell_length_a   3.53584286
_cell_length_b   6.80232271
_cell_length_c   7.40396419
_cell_angle_alpha   86.09199940
_cell_angle_beta   103.90947957
_cell_angle_gamma   81.96532890
_symmetry_Int_Tables_number   1
_chemical_formula_structural   Sr2Nb3H13
_chemical_formula_sum   'Sr2 Nb3 H13'
_cell_volume   170.19914122
_cell_formula_units_Z   1
loop_
 _symmetry_equiv_pos_site_id
 _symmetry_equiv_pos_as_xyz
  1  'x, y, z'
loop_
 _atom_site_type_symbol
 _atom_site_label
 _atom_site_symmetry_multiplicity
 _atom_site_fract_x
 _atom_site_fract_y
 _atom_site_fract_z
 _atom_site_occupancy
  Sr  Sr0  1  0.97178418  0.03839479  0.25247649  1
  Sr  Sr1  1  0.96848234  0.57064160  0.13923339  1
  Nb  Nb2  1  0.59147834  0.28797102  0.58176097  1
  Nb  Nb3  1  0.26290758  0.97100306  0.82777903  1
  Nb  Nb4  1  0.75204026  0.71533606  0.59449832  1
  H  H5  1  0.43006123  0.39657835  0.97880913  1
  H  H6  1  0.36316159  0.49865254  0.91504178  1
  H  H7  1  0.45505356  0.29728047  0.31445832  1
  H  H8  1  0.60868049  0.01232559  0.49576059  1
  H  H9  1  0.97299186  0.45943257  0.49812931  1
  H  H10  1  0.31807596  0.13548806  0.02690710  1
  H  H11  1  0.16143436  0.23145373  0.69802831  1
  H  H12  1  0.73295143  0.11840797  0.83898866  1
  H  H13  1  0.37723290  0.81575178  0.06071967  1
  H  H14  1  0.81582828  0.80897515  0.84308995  1
  H  H15  1  0.21467982  0.82747311  0.57916267  1
  H  H16  1  0.58876200  0.75084888  0.33110234  1
  H  H17  1  0.71581983  0.48971929  0.75177697  1
