# generated using pymatgen
data_Sr2NbH9
_symmetry_space_group_name_H-M   'P 1'
_cell_length_a   3.73851934
_cell_length_b   5.89673011
_cell_length_c   6.76547018
_cell_angle_alpha   88.07154128
_cell_angle_beta   105.31795850
_cell_angle_gamma   90.36635596
_symmetry_Int_Tables_number   1
_chemical_formula_structural   Sr2NbH9
_chemical_formula_sum   'Sr2 Nb1 H9'
_cell_volume   143.76467639
_cell_formula_units_Z   1
loop_
 _symmetry_equiv_pos_site_id
 _symmetry_equiv_pos_as_xyz
  1  'x, y, z'
loop_
 _atom_site_type_symbol
 _atom_site_label
 _atom_site_symmetry_multiplicity
 _atom_site_fract_x
 _atom_site_fract_y
 _atom_site_fract_z
 _atom_site_occupancy
  Sr  Sr0  1  0.19001889  0.67071328  0.61082598  1
  Sr  Sr1  1  0.46645090  0.29924722  0.17667843  1
  Nb  Nb2  1  0.90422923  0.81716822  0.05496168  1
  H  H3  1  0.64321054  0.43379660  0.52188091  1
  H  H4  1  0.02393256  0.97452785  0.30891563  1
  H  H5  1  0.87976601  0.12728270  0.99695826  1
  H  H6  1  0.77087268  0.88607750  0.77212764  1
  H  H7  1  0.35007768  0.24876630  0.72815931  1
  H  H8  1  0.15045538  0.24437370  0.73606936  1
  H  H9  1  0.83403894  0.54214434  0.91569995  1
  H  H10  1  0.00325048  0.57257362  0.24979939  1
  H  H11  1  0.37999070  0.85937365  0.00274847  1
