# generated using pymatgen
data_Sr(NbH8)2
_symmetry_space_group_name_H-M   'P 1'
_cell_length_a   3.69206376
_cell_length_b   6.28434609
_cell_length_c   6.84079045
_cell_angle_alpha   86.78780805
_cell_angle_beta   75.65436411
_cell_angle_gamma   92.25306077
_symmetry_Int_Tables_number   1
_chemical_formula_structural   Sr(NbH8)2
_chemical_formula_sum   'Sr1 Nb2 H16'
_cell_volume   153.29834136
_cell_formula_units_Z   1
loop_
 _symmetry_equiv_pos_site_id
 _symmetry_equiv_pos_as_xyz
  1  'x, y, z'
loop_
 _atom_site_type_symbol
 _atom_site_label
 _atom_site_symmetry_multiplicity
 _atom_site_fract_x
 _atom_site_fract_y
 _atom_site_fract_z
 _atom_site_occupancy
  Sr  Sr0  1  0.81993406  0.74303523  0.61056212  1
  Nb  Nb1  1  0.32672146  0.21873905  0.70777419  1
  Nb  Nb2  1  0.05456273  0.26688019  0.25334803  1
  H  H3  1  0.69070065  0.82849105  0.02007105  1
  H  H4  1  0.56734838  0.72765807  0.03795986  1
  H  H5  1  0.52298570  0.15292891  0.20200804  1
  H  H6  1  0.44362636  0.44498745  0.16588175  1
  H  H7  1  0.74011616  0.08662409  0.74806928  1
  H  H8  1  0.28074417  0.36071842  0.45681982  1
  H  H9  1  0.05540480  0.44698632  0.02077867  1
  H  H10  1  0.97317871  0.52744446  0.12662458  1
  H  H11  1  0.22067002  0.93463209  0.79210470  1
  H  H12  1  0.17251307  0.13219077  0.00420507  1
  H  H13  1  0.75085255  0.32357023  0.52287071  1
  H  H14  1  0.65887773  0.36856967  0.80310842  1
  H  H15  1  0.97515086  0.55057689  0.30390689  1
  H  H16  1  0.01375259  0.97192804  0.30436654  1
  H  H17  1  0.42635445  0.03380315  0.51671227  1
  H  H18  1  0.24599355  0.51751991  0.72644303  1
