# generated using pymatgen
data_SrNbH19
_symmetry_space_group_name_H-M   'P 1'
_cell_length_a   5.76713884
_cell_length_b   5.52440179
_cell_length_c   6.57909975
_cell_angle_alpha   69.14005567
_cell_angle_beta   84.83070763
_cell_angle_gamma   78.01121419
_symmetry_Int_Tables_number   1
_chemical_formula_structural   SrNbH19
_chemical_formula_sum   'Sr1 Nb1 H19'
_cell_volume   191.56876412
_cell_formula_units_Z   1
loop_
 _symmetry_equiv_pos_site_id
 _symmetry_equiv_pos_as_xyz
  1  'x, y, z'
loop_
 _atom_site_type_symbol
 _atom_site_label
 _atom_site_symmetry_multiplicity
 _atom_site_fract_x
 _atom_site_fract_y
 _atom_site_fract_z
 _atom_site_occupancy
  Sr  Sr0  1  0.42083191  0.39787816  -0.00765456  1
  Nb  Nb1  1  0.39040285  0.12975151  0.60152493  1
  H  H2  1  0.64622327  0.81531798  0.21692966  1
  H  H3  1  0.68638990  0.84565834  0.09957901  1
  H  H4  1  0.21322944  0.68833526  0.24032683  1
  H  H5  1  0.16190950  0.77738462  0.13075070  1
  H  H6  1  0.88942603  0.20208642  0.19466364  1
  H  H7  1  0.94257702  0.17075288  0.09494325  1
  H  H8  1  0.21550616  0.16249281  0.84398819  1
  H  H9  1  0.48009215  0.84463970  0.83918438  1
  H  H10  1  0.65191214  0.85474241  0.54982872  1
  H  H11  1  0.98298890  0.69223657  0.84058698  1
  H  H12  1  0.18075086  0.90525643  0.65124208  1
  H  H13  1  0.64016331  0.17377460  0.73819453  1
  H  H14  1  0.35242544  0.46096810  0.59884485  1
  H  H15  1  0.32937192  0.08126114  0.34885358  1
  H  H16  1  0.05212000  0.24812979  0.54404900  1
  H  H17  1  0.09722411  0.38805817  0.51442706  1
  H  H18  1  0.71965510  0.97722355  0.53195669  1
  H  H19  1  0.55176114  0.33623845  0.36667375  1
  H  H20  1  0.93426787  0.57964113  0.92694371  1
