# generated using pymatgen
data_SrNbH19
_symmetry_space_group_name_H-M   'P 1'
_cell_length_a   3.95620432
_cell_length_b   5.70116185
_cell_length_c   8.87109763
_cell_angle_alpha   87.53552798
_cell_angle_beta   80.88640351
_cell_angle_gamma   89.46109763
_symmetry_Int_Tables_number   1
_chemical_formula_structural   SrNbH19
_chemical_formula_sum   'Sr1 Nb1 H19'
_cell_volume   197.37799844
_cell_formula_units_Z   1
loop_
 _symmetry_equiv_pos_site_id
 _symmetry_equiv_pos_as_xyz
  1  'x, y, z'
loop_
 _atom_site_type_symbol
 _atom_site_label
 _atom_site_symmetry_multiplicity
 _atom_site_fract_x
 _atom_site_fract_y
 _atom_site_fract_z
 _atom_site_occupancy
  Sr  Sr0  1  0.76057982  0.29415253  0.61200712  1
  Nb  Nb1  1  0.34864828  0.80881467  0.51284250  1
  H  H2  1  0.74788468  0.95492679  0.43408739  1
  H  H3  1  0.68290207  0.78347497  0.63132578  1
  H  H4  1  0.30616299  0.23617940  0.93080927  1
  H  H5  1  0.27816969  0.35852072  0.89885338  1
  H  H6  1  0.34753139  0.76054306  0.28598910  1
  H  H7  1  0.31565138  0.86182479  0.01153577  1
  H  H8  1  0.01956269  0.52509390  0.13019855  1
  H  H9  1  0.96751084  0.51822723  0.21525020  1
  H  H10  1  0.30257512  0.85911779  0.92800963  1
  H  H11  1  0.40999353  0.89433602  0.28279381  1
  H  H12  1  0.22179090  0.53882761  0.44015504  1
  H  H13  1  0.75785206  0.17522956  0.12551224  1
  H  H14  1  0.78838995  0.07258486  0.07582279  1
  H  H15  1  0.83824456  0.61250443  0.87031031  1
  H  H16  1  0.73624467  0.54817606  0.93861697  1
  H  H17  1  0.68919574  0.61850538  0.43997385  1
  H  H18  1  0.28188215  0.11980051  0.45758165  1
  H  H19  1  0.24554367  0.58050919  0.67285882  1
  H  H20  1  0.22606484  0.97956953  0.69071786  1
