# generated using pymatgen
data_SrNbH6
_symmetry_space_group_name_H-M   'P 1'
_cell_length_a   5.46996352
_cell_length_b   3.38864626
_cell_length_c   5.29177606
_cell_angle_alpha   50.32300337
_cell_angle_beta   90.21376356
_cell_angle_gamma   89.75733011
_symmetry_Int_Tables_number   1
_chemical_formula_structural   SrNbH6
_chemical_formula_sum   'Sr1 Nb1 H6'
_cell_volume   75.49004365
_cell_formula_units_Z   1
loop_
 _symmetry_equiv_pos_site_id
 _symmetry_equiv_pos_as_xyz
  1  'x, y, z'
loop_
 _atom_site_type_symbol
 _atom_site_label
 _atom_site_symmetry_multiplicity
 _atom_site_fract_x
 _atom_site_fract_y
 _atom_site_fract_z
 _atom_site_occupancy
  Sr  Sr0  1  0.89125786  0.63359848  0.34800304  1
  Nb  Nb1  1  0.36940918  0.65445441  0.83278641  1
  H  H2  1  0.66777710  0.44346710  0.03800575  1
  H  H3  1  0.62066148  0.92750795  0.55426076  1
  H  H4  1  0.02709727  0.65205580  0.84083404  1
  H  H5  1  0.41376335  0.36707668  0.61299283  1
  H  H6  1  0.32321140  0.90565600  0.07433337  1
  H  H7  1  0.25599536  0.10630958  0.37421481  1
