# generated using pymatgen
data_SrNbH7
_symmetry_space_group_name_H-M   'P 1'
_cell_length_a   3.90405771
_cell_length_b   6.70992530
_cell_length_c   7.28054028
_cell_angle_alpha   102.62002385
_cell_angle_beta   90.48682879
_cell_angle_gamma   106.06708324
_symmetry_Int_Tables_number   1
_chemical_formula_structural   SrNbH7
_chemical_formula_sum   'Sr2 Nb2 H14'
_cell_volume   178.35863597
_cell_formula_units_Z   2
loop_
 _symmetry_equiv_pos_site_id
 _symmetry_equiv_pos_as_xyz
  1  'x, y, z'
loop_
 _atom_site_type_symbol
 _atom_site_label
 _atom_site_symmetry_multiplicity
 _atom_site_fract_x
 _atom_site_fract_y
 _atom_site_fract_z
 _atom_site_occupancy
  Sr  Sr0  1  0.92428732  0.72984756  0.77307630  1
  Sr  Sr1  1  0.27055521  0.39905890  0.08416824  1
  Nb  Nb2  1  0.63210263  0.15616906  0.61544900  1
  Nb  Nb3  1  0.99751549  0.87342177  0.30597072  1
  H  H4  1  0.37981367  0.63439528  0.89077800  1
  H  H5  1  0.73963059  0.35423530  0.84385278  1
  H  H6  1  0.97267541  0.38202286  0.58662228  1
  H  H7  1  0.86658523  0.12594369  0.37541663  1
  H  H8  1  0.25323715  0.86811623  0.51306706  1
  H  H9  1  0.35850452  0.13341907  0.37925992  1
  H  H10  1  0.50762880  0.38537888  0.59523912  1
  H  H11  1  0.73933450  0.86454678  0.50937536  1
  H  H12  1  0.89357473  0.65542431  0.09281229  1
  H  H13  1  0.87332932  0.60591185  0.35921236  1
  H  H14  1  0.46212396  0.79384442  0.23970562  1
  H  H15  1  0.05015626  0.00656116  0.09798375  1
  H  H16  1  0.57211757  0.02507300  0.81495852  1
  H  H17  1  0.13463765  0.15631688  0.71492005  1
