# generated using pymatgen
data_SrNb3H14
_symmetry_space_group_name_H-M   'P 1'
_cell_length_a   4.96847719
_cell_length_b   5.11610289
_cell_length_c   6.20184260
_cell_angle_alpha   85.39315007
_cell_angle_beta   92.29005839
_cell_angle_gamma   83.85774118
_symmetry_Int_Tables_number   1
_chemical_formula_structural   SrNb3H14
_chemical_formula_sum   'Sr1 Nb3 H14'
_cell_volume   156.04714064
_cell_formula_units_Z   1
loop_
 _symmetry_equiv_pos_site_id
 _symmetry_equiv_pos_as_xyz
  1  'x, y, z'
loop_
 _atom_site_type_symbol
 _atom_site_label
 _atom_site_symmetry_multiplicity
 _atom_site_fract_x
 _atom_site_fract_y
 _atom_site_fract_z
 _atom_site_occupancy
  Sr  Sr0  1  0.45352837  0.69978971  0.07310473  1
  Nb  Nb1  1  0.01181774  0.70389731  0.57992540  1
  Nb  Nb2  1  0.44641747  0.13848149  0.52726873  1
  Nb  Nb3  1  0.93527904  0.23812271  0.79419400  1
  H  H4  1  0.02848436  0.20588706  0.10177704  1
  H  H5  1  0.85933339  0.27909997  0.09717443  1
  H  H6  1  0.67074767  0.84134574  0.40835738  1
  H  H7  1  0.20174922  0.94190295  0.36238000  1
  H  H8  1  0.21835708  0.46089514  0.38833933  1
  H  H9  1  0.73770190  0.41390414  0.51663490  1
  H  H10  1  0.25408637  0.42308250  0.73301227  1
  H  H11  1  0.01012668  0.84906900  0.85391648  1
  H  H12  1  0.85376416  0.06717892  0.54698575  1
  H  H13  1  0.77484970  0.58429843  0.79609758  1
  H  H14  1  0.37358942  0.80111328  0.65003664  1
  H  H15  1  0.23188040  0.12442654  0.97547025  1
  H  H16  1  0.58778220  0.12523580  0.82500756  1
  H  H17  1  0.51526783  0.21100331  0.24297854  1
