# generated using pymatgen
data_SrNb2H15
_symmetry_space_group_name_H-M   'P 1'
_cell_length_a   3.26154702
_cell_length_b   7.83853256
_cell_length_c   5.86933391
_cell_angle_alpha   104.98042945
_cell_angle_beta   89.92400548
_cell_angle_gamma   78.23314357
_symmetry_Int_Tables_number   1
_chemical_formula_structural   SrNb2H15
_chemical_formula_sum   'Sr1 Nb2 H15'
_cell_volume   141.67616869
_cell_formula_units_Z   1
loop_
 _symmetry_equiv_pos_site_id
 _symmetry_equiv_pos_as_xyz
  1  'x, y, z'
loop_
 _atom_site_type_symbol
 _atom_site_label
 _atom_site_symmetry_multiplicity
 _atom_site_fract_x
 _atom_site_fract_y
 _atom_site_fract_z
 _atom_site_occupancy
  Sr  Sr0  1  0.70580963  0.82557845  0.95056592  1
  Nb  Nb1  1  0.07611357  0.08500165  0.50159674  1
  Nb  Nb2  1  0.42104844  0.39560594  0.89963753  1
  H  H3  1  0.10215800  0.03613314  0.17549408  1
  H  H4  1  0.89077300  0.45652932  0.08980727  1
  H  H5  1  0.19203092  0.85225705  0.34646772  1
  H  H6  1  0.00562021  0.22258165  0.86668408  1
  H  H7  1  0.33593627  0.56641716  0.74041397  1
  H  H8  1  0.40516941  0.42874189  0.20967926  1
  H  H9  1  0.84719348  0.30129791  0.36324717  1
  H  H10  1  0.50256359  0.23432374  0.57569606  1
  H  H11  1  0.64096951  0.95243561  0.42391554  1
  H  H12  1  0.09213974  0.30369517  0.36716816  1
  H  H13  1  0.69049820  0.63296099  0.48523924  1
  H  H14  1  0.88941788  0.46128694  0.75921412  1
  H  H15  1  0.89939241  0.65909572  0.47703219  1
  H  H16  1  0.15676318  0.92282899  0.69577117  1
  H  H17  1  0.30574155  0.62573768  0.08994577  1
