# generated using pymatgen
data_SrNbH6
_symmetry_space_group_name_H-M   'P 1'
_cell_length_a   5.83109474
_cell_length_b   6.14466192
_cell_length_c   5.80533312
_cell_angle_alpha   87.27229504
_cell_angle_beta   87.73580725
_cell_angle_gamma   59.71493539
_symmetry_Int_Tables_number   1
_chemical_formula_structural   SrNbH6
_chemical_formula_sum   'Sr2 Nb2 H12'
_cell_volume   179.38603441
_cell_formula_units_Z   2
loop_
 _symmetry_equiv_pos_site_id
 _symmetry_equiv_pos_as_xyz
  1  'x, y, z'
loop_
 _atom_site_type_symbol
 _atom_site_label
 _atom_site_symmetry_multiplicity
 _atom_site_fract_x
 _atom_site_fract_y
 _atom_site_fract_z
 _atom_site_occupancy
  Sr  Sr0  1  0.81616779  0.92721331  0.16314401  1
  Sr  Sr1  1  0.43957331  0.60062500  0.63406731  1
  Nb  Nb2  1  0.03966936  0.34759448  0.92226982  1
  Nb  Nb3  1  0.19095482  0.22708889  0.42021732  1
  H  H4  1  0.31164968  0.30960862  0.11971031  1
  H  H5  1  0.09908749  0.61674531  0.89250678  1
  H  H6  1  0.72671986  0.65160085  0.89932199  1
  H  H7  1  0.32366931  0.26129867  0.71022477  1
  H  H8  1  0.04731132  0.13683972  0.70301223  1
  H  H9  1  0.75377755  0.29544142  0.93176097  1
  H  H10  1  0.17370246  0.05305166  0.11235360  1
  H  H11  1  0.07193113  0.98404423  0.43984353  1
  H  H12  1  0.49406094  0.91687694  0.43115963  1
  H  H13  1  0.86429147  0.43226556  0.24391602  1
  H  H14  1  0.49066450  0.25019417  0.41378081  1
  H  H15  1  0.11195701  0.56017717  0.41882890  1
