# generated using pymatgen
data_SrNbH14
_symmetry_space_group_name_H-M   'P 1'
_cell_length_a   3.38080198
_cell_length_b   6.02202539
_cell_length_c   7.42338989
_cell_angle_alpha   92.50836662
_cell_angle_beta   96.41622609
_cell_angle_gamma   90.10212033
_symmetry_Int_Tables_number   1
_chemical_formula_structural   SrNbH14
_chemical_formula_sum   'Sr1 Nb1 H14'
_cell_volume   150.04088357
_cell_formula_units_Z   1
loop_
 _symmetry_equiv_pos_site_id
 _symmetry_equiv_pos_as_xyz
  1  'x, y, z'
loop_
 _atom_site_type_symbol
 _atom_site_label
 _atom_site_symmetry_multiplicity
 _atom_site_fract_x
 _atom_site_fract_y
 _atom_site_fract_z
 _atom_site_occupancy
  Sr  Sr0  1  0.25848932  0.87874907  0.37271753  1
  Nb  Nb1  1  0.73685737  0.37266262  0.27452088  1
  H  H2  1  0.12212841  0.48828559  0.74796945  1
  H  H3  1  0.16674314  0.49403290  0.85014890  1
  H  H4  1  0.20110798  0.33497903  0.11738420  1
  H  H5  1  0.71620130  0.67129756  0.20317537  1
  H  H6  1  0.14378521  0.82004251  0.98197221  1
  H  H7  1  0.16787372  0.94486721  0.99485945  1
  H  H8  1  0.71883942  0.06715985  0.21436872  1
  H  H9  1  0.57311755  0.84962384  0.74720811  1
  H  H10  1  0.61925624  0.73913773  0.70097763  1
  H  H11  1  0.78865323  0.55039506  0.47944488  1
  H  H12  1  0.62957605  0.17461452  0.87475306  1
  H  H13  1  0.65424287  0.21498252  0.78181861  1
  H  H14  1  0.26604040  0.42768150  0.38989253  1
  H  H15  1  0.78833179  0.22022048  0.48353748  1
