# generated using pymatgen
data_SrNbH7
_symmetry_space_group_name_H-M   'P 1'
_cell_length_a   3.26195843
_cell_length_b   6.76029769
_cell_length_c   7.13434101
_cell_angle_alpha   44.79272544
_cell_angle_beta   64.22193150
_cell_angle_gamma   62.44389495
_symmetry_Int_Tables_number   1
_chemical_formula_structural   SrNbH7
_chemical_formula_sum   'Sr1 Nb1 H7'
_cell_volume   96.82705705
_cell_formula_units_Z   1
loop_
 _symmetry_equiv_pos_site_id
 _symmetry_equiv_pos_as_xyz
  1  'x, y, z'
loop_
 _atom_site_type_symbol
 _atom_site_label
 _atom_site_symmetry_multiplicity
 _atom_site_fract_x
 _atom_site_fract_y
 _atom_site_fract_z
 _atom_site_occupancy
  Sr  Sr0  1  0.51210779  0.05882570  0.76077475  1
  Nb  Nb1  1  0.37449136  0.32393987  0.11806381  1
  H  H2  1  0.73127285  0.08682153  0.01823395  1
  H  H3  1  0.11646245  0.29824697  0.41867023  1
  H  H4  1  0.18671837  0.71182021  0.92796023  1
  H  H5  1  0.56802329  0.60711339  0.42575056  1
  H  H6  1  0.40493570  0.61511484  0.53584363  1
  H  H7  1  0.88436753  0.09407842  0.33450554  1
  H  H8  1  0.92576465  0.49514307  0.88600732  1
