# generated using pymatgen
data_SrNbH23
_symmetry_space_group_name_H-M   'P 1'
_cell_length_a   5.45395450
_cell_length_b   7.42595158
_cell_length_c   5.64216484
_cell_angle_alpha   82.54219012
_cell_angle_beta   92.45443355
_cell_angle_gamma   81.62083594
_symmetry_Int_Tables_number   1
_chemical_formula_structural   SrNbH23
_chemical_formula_sum   'Sr1 Nb1 H23'
_cell_volume   223.71609793
_cell_formula_units_Z   1
loop_
 _symmetry_equiv_pos_site_id
 _symmetry_equiv_pos_as_xyz
  1  'x, y, z'
loop_
 _atom_site_type_symbol
 _atom_site_label
 _atom_site_symmetry_multiplicity
 _atom_site_fract_x
 _atom_site_fract_y
 _atom_site_fract_z
 _atom_site_occupancy
  Sr  Sr0  1  0.41581668  0.80874721  0.61240240  1
  Nb  Nb1  1  0.92759340  0.80582314  0.03677936  1
  H  H2  1  0.09525616  0.61572879  0.90747053  1
  H  H3  1  0.71322531  0.65093922  0.94191975  1
  H  H4  1  0.58763007  0.16401948  0.45169401  1
  H  H5  1  0.64023920  0.12742592  0.57670395  1
  H  H6  1  0.39089158  0.43021557  0.80302390  1
  H  H7  1  0.51941303  0.40250727  0.76434290  1
  H  H8  1  0.06724675  0.18949196  0.51576552  1
  H  H9  1  0.15804203  0.24042271  0.57411140  1
  H  H10  1  0.93500773  0.85116547  0.71012926  1
  H  H11  1  0.96005972  0.60246618  0.31785906  1
  H  H12  1  0.04708727  0.89460832  0.30617913  1
  H  H13  1  0.04860352  0.55456283  0.22606239  1
  H  H14  1  0.68981202  0.81470468  0.26412838  1
  H  H15  1  0.46970630  0.48218639  0.38512827  1
  H  H16  1  0.50342397  0.55234409  0.28851376  1
  H  H17  1  0.28587887  0.23660739  0.13901467  1
  H  H18  1  0.38476444  0.16164267  0.10916862  1
  H  H19  1  0.06247147  0.02849097  0.93723963  1
  H  H20  1  0.91739086  0.07164813  0.96015604  1
  H  H21  1  0.80669752  0.26215026  0.17332908  1
  H  H22  1  0.78960956  0.35978946  0.11008638  1
  H  H23  1  0.25716325  0.82703612  0.02317480  1
  H  H24  1  0.65042828  0.95921577  0.90636582  1
