# generated using pymatgen
data_SrNbH13
_symmetry_space_group_name_H-M   'P 1'
_cell_length_a   3.93712963
_cell_length_b   5.77753015
_cell_length_c   5.56724373
_cell_angle_alpha   109.67709368
_cell_angle_beta   90.60541987
_cell_angle_gamma   88.68520127
_symmetry_Int_Tables_number   1
_chemical_formula_structural   SrNbH13
_chemical_formula_sum   'Sr1 Nb1 H13'
_cell_volume   119.21055248
_cell_formula_units_Z   1
loop_
 _symmetry_equiv_pos_site_id
 _symmetry_equiv_pos_as_xyz
  1  'x, y, z'
loop_
 _atom_site_type_symbol
 _atom_site_label
 _atom_site_symmetry_multiplicity
 _atom_site_fract_x
 _atom_site_fract_y
 _atom_site_fract_z
 _atom_site_occupancy
  Sr  Sr0  1  0.74489954  0.36943890  0.45188196  1
  Nb  Nb1  1  0.35671315  0.99720535  0.80787798  1
  H  H2  1  0.91024918  0.93895311  0.33257778  1
  H  H3  1  0.23618940  0.26328186  0.11742517  1
  H  H4  1  0.09456083  0.97594903  0.33955806  1
  H  H5  1  0.26502357  0.27445350  0.71467929  1
  H  H6  1  0.74474292  0.16450908  0.82553435  1
  H  H7  1  0.24635895  0.69593125  0.90173876  1
  H  H8  1  0.25902026  0.69439234  0.55898684  1
  H  H9  1  0.33856280  0.78521018  0.02717140  1
  H  H10  1  0.52574104  0.96222537  0.50348147  1
  H  H11  1  0.74118576  0.81002675  0.74033918  1
  H  H12  1  0.76292852  0.62085215  0.12325969  1
  H  H13  1  0.61522833  0.01272354  0.07203908  1
  H  H14  1  0.89339674  0.51727057  0.07492699  1
