# generated using pymatgen
data_Sr(NbH7)3
_symmetry_space_group_name_H-M   'P 1'
_cell_length_a   4.33622071
_cell_length_b   7.45207517
_cell_length_c   6.79003136
_cell_angle_alpha   91.24448080
_cell_angle_beta   88.60951721
_cell_angle_gamma   103.40436014
_symmetry_Int_Tables_number   1
_chemical_formula_structural   Sr(NbH7)3
_chemical_formula_sum   'Sr1 Nb3 H21'
_cell_volume   213.34276775
_cell_formula_units_Z   1
loop_
 _symmetry_equiv_pos_site_id
 _symmetry_equiv_pos_as_xyz
  1  'x, y, z'
loop_
 _atom_site_type_symbol
 _atom_site_label
 _atom_site_symmetry_multiplicity
 _atom_site_fract_x
 _atom_site_fract_y
 _atom_site_fract_z
 _atom_site_occupancy
  Sr  Sr0  1  0.26526732  0.71200165  0.40059460  1
  Nb  Nb1  1  0.06054681  0.15732792  0.41264736  1
  Nb  Nb2  1  0.68297013  0.63840454  0.90715469  1
  Nb  Nb3  1  0.54955891  0.27915217  0.67697504  1
  H  H4  1  0.83397439  0.90439277  0.93330287  1
  H  H5  1  0.80367063  0.55038438  0.66793609  1
  H  H6  1  0.91415799  0.36831123  0.48295721  1
  H  H7  1  0.77719275  0.09949097  0.63130977  1
  H  H8  1  0.49054109  0.76178588  0.74632541  1
  H  H9  1  0.57407496  0.10638163  0.84324304  1
  H  H10  1  0.23856040  0.03537217  0.21525582  1
  H  H11  1  0.24758972  0.34232650  0.24632470  1
  H  H12  1  0.89712445  0.24335588  0.15632669  1
  H  H13  1  0.74936764  0.16074842  0.17841086  1
  H  H14  1  0.71140403  0.88490509  0.03005524  1
  H  H15  1  0.85307508  0.90833552  0.39335476  1
  H  H16  1  0.26516686  0.18620632  0.90148387  1
  H  H17  1  0.14159123  0.22256078  0.82868089  1
  H  H18  1  0.35721772  0.49438507  0.77107850  1
  H  H19  1  0.94821129  0.80264918  0.76284041  1
  H  H20  1  0.70174814  0.38843285  0.92746473  1
  H  H21  1  0.71543739  0.62603974  0.18460946  1
  H  H22  1  0.27332071  0.66018745  0.00019211  1
  H  H23  1  0.49016116  0.24119828  0.40382800  1
  H  H24  1  0.26503420  0.05014860  0.60778489  1
