# generated using pymatgen
data_Sr2Nb2H15
_symmetry_space_group_name_H-M   'P 1'
_cell_length_a   5.16302900
_cell_length_b   5.49357438
_cell_length_c   6.85015333
_cell_angle_alpha   69.32049873
_cell_angle_beta   88.13235711
_cell_angle_gamma   87.67167469
_symmetry_Int_Tables_number   1
_chemical_formula_structural   Sr2Nb2H15
_chemical_formula_sum   'Sr2 Nb2 H15'
_cell_volume   181.59125893
_cell_formula_units_Z   1
loop_
 _symmetry_equiv_pos_site_id
 _symmetry_equiv_pos_as_xyz
  1  'x, y, z'
loop_
 _atom_site_type_symbol
 _atom_site_label
 _atom_site_symmetry_multiplicity
 _atom_site_fract_x
 _atom_site_fract_y
 _atom_site_fract_z
 _atom_site_occupancy
  Sr  Sr0  1  0.17706891  0.09425961  0.18534044  1
  Sr  Sr1  1  0.72812695  0.81776186  0.78345738  1
  Nb  Nb2  1  0.68569057  0.55886161  0.36897848  1
  Nb  Nb3  1  0.21688398  0.34568522  0.61241419  1
  H  H4  1  0.40224091  0.68108811  0.49823091  1
  H  H5  1  0.77204719  0.43837320  0.14586333  1
  H  H6  1  0.01619542  0.65481229  0.29721571  1
  H  H7  1  0.36484124  0.42120035  0.31800668  1
  H  H8  1  0.73747544  0.87660042  0.38732708  1
  H  H9  1  0.86789998  0.52904651  0.60384875  1
  H  H10  1  0.93794198  0.25922667  0.46776552  1
  H  H11  1  0.20959789  0.78316297  0.95028846  1
  H  H12  1  0.15131641  0.69512350  0.05472466  1
  H  H13  1  0.99652994  0.16199064  0.82968249  1
  H  H14  1  0.56371055  0.25459262  0.58088827  1
  H  H15  1  0.16197741  0.49632710  0.80854683  1
  H  H16  1  0.23227064  0.00313899  0.63231785  1
  H  H17  1  0.40350127  0.17413424  0.84711710  1
  H  H18  1  0.59393431  0.83765107  0.12958787  1
