# generated using pymatgen
data_SrNbH12
_symmetry_space_group_name_H-M   'P 1'
_cell_length_a   3.50655288
_cell_length_b   6.28063789
_cell_length_c   6.05462397
_cell_angle_alpha   80.76000709
_cell_angle_beta   89.96577963
_cell_angle_gamma   88.50480692
_symmetry_Int_Tables_number   1
_chemical_formula_structural   SrNbH12
_chemical_formula_sum   'Sr1 Nb1 H12'
_cell_volume   131.56744811
_cell_formula_units_Z   1
loop_
 _symmetry_equiv_pos_site_id
 _symmetry_equiv_pos_as_xyz
  1  'x, y, z'
loop_
 _atom_site_type_symbol
 _atom_site_label
 _atom_site_symmetry_multiplicity
 _atom_site_fract_x
 _atom_site_fract_y
 _atom_site_fract_z
 _atom_site_occupancy
  Sr  Sr0  1  -0.00004881  0.14208031  0.15448657  1
  Nb  Nb1  1  0.46934111  0.03524191  0.68101180  1
  H  H2  1  0.65284492  0.70510122  0.67424372  1
  H  H3  1  0.50569236  0.97770066  0.38972167  1
  H  H4  1  0.03229904  0.92473447  0.81622278  1
  H  H5  1  0.41562651  0.69497601  0.67960279  1
  H  H6  1  0.01324353  0.15147965  0.56402080  1
  H  H7  1  0.48725598  0.27498076  0.82203275  1
  H  H8  1  0.49258776  0.28667445  0.48490376  1
  H  H9  1  0.51526887  0.94692755  -0.01192170  1
  H  H10  1  0.50274221  0.52235842  0.05181626  1
  H  H11  1  0.98171216  0.70964038  0.21129359  1
  H  H12  1  0.03388008  0.71035049  0.33200311  1
  H  H13  1  0.50217627  0.50030372  0.17823808  1
