# generated using pymatgen
data_SrNbH6
_symmetry_space_group_name_H-M   'P 1'
_cell_length_a   3.28320553
_cell_length_b   3.90215640
_cell_length_c   6.79737321
_cell_angle_alpha   93.86352521
_cell_angle_beta   90.07120286
_cell_angle_gamma   64.10476772
_symmetry_Int_Tables_number   1
_chemical_formula_structural   SrNbH6
_chemical_formula_sum   'Sr1 Nb1 H6'
_cell_volume   78.12465954
_cell_formula_units_Z   1
loop_
 _symmetry_equiv_pos_site_id
 _symmetry_equiv_pos_as_xyz
  1  'x, y, z'
loop_
 _atom_site_type_symbol
 _atom_site_label
 _atom_site_symmetry_multiplicity
 _atom_site_fract_x
 _atom_site_fract_y
 _atom_site_fract_z
 _atom_site_occupancy
  Sr  Sr0  1  0.60124142  0.21019878  0.78867952  1
  Nb  Nb1  1  0.89633314  0.59677707  0.30676996  1
  H  H2  1  0.30219578  0.82389160  0.83316601  1
  H  H3  1  0.30486986  0.76892446  0.45240530  1
  H  H4  1  0.00294302  0.39670458  0.04878775  1
  H  H5  1  0.32355812  0.73038070  0.16766147  1
  H  H6  1  0.59385493  0.19540848  0.30478478  1
  H  H7  1  0.97007974  0.45945833  0.56148920  1
