# generated using pymatgen
data_SrNbH23
_symmetry_space_group_name_H-M   'P 1'
_cell_length_a   5.01000733
_cell_length_b   7.84825254
_cell_length_c   6.04556483
_cell_angle_alpha   94.08967760
_cell_angle_beta   86.30097739
_cell_angle_gamma   102.85073152
_symmetry_Int_Tables_number   1
_chemical_formula_structural   SrNbH23
_chemical_formula_sum   'Sr1 Nb1 H23'
_cell_volume   230.87681013
_cell_formula_units_Z   1
loop_
 _symmetry_equiv_pos_site_id
 _symmetry_equiv_pos_as_xyz
  1  'x, y, z'
loop_
 _atom_site_type_symbol
 _atom_site_label
 _atom_site_symmetry_multiplicity
 _atom_site_fract_x
 _atom_site_fract_y
 _atom_site_fract_z
 _atom_site_occupancy
  Sr  Sr0  1  0.98622998  0.32261569  0.16757048  1
  Nb  Nb1  1  0.32536622  0.32105256  0.64594298  1
  H  H2  1  0.68751015  0.97914619  0.00742833  1
  H  H3  1  0.77212028  0.66159469  0.14715769  1
  H  H4  1  0.67538671  0.59484109  0.07794967  1
  H  H5  1  0.57534866  0.99411621  0.09078419  1
  H  H6  1  0.54040792  0.13133567  0.67388000  1
  H  H7  1  0.39665647  0.07800491  0.62750299  1
  H  H8  1  0.59318586  0.55261617  0.63200749  1
  H  H9  1  0.77948675  0.90204091  0.46843879  1
  H  H10  1  0.69913333  0.49225909  0.65104283  1
  H  H11  1  0.65622281  0.83156095  0.44021191  1
  H  H12  1  0.21274572  0.72390703  0.39325405  1
  H  H13  1  0.18068833  0.80200479  0.34223765  1
  H  H14  1  0.11833875  0.14796736  0.47277430  1
  H  H15  1  0.26803419  0.49235341  0.47611783  1
  H  H16  1  0.04384545  0.75637285  0.78513585  1
  H  H17  1  0.99697992  0.83654664  0.75766447  1
  H  H18  1  0.13659547  0.00441822  0.04846847  1
  H  H19  1  0.12650497  0.99677452  0.17320459  1
  H  H20  1  0.07835059  0.17353325  0.81794010  1
  H  H21  1  0.98388712  0.33515041  0.62932596  1
  H  H22  1  0.51159412  0.30336637  0.36526461  1
  H  H23  1  0.47126827  0.32482029  0.92221029  1
  H  H24  1  0.22130696  0.49121971  0.83496547  1
