# generated using pymatgen
data_Sr3NbH16
_symmetry_space_group_name_H-M   'P 1'
_cell_length_a   5.51095974
_cell_length_b   6.82245996
_cell_length_c   6.32435768
_cell_angle_alpha   83.60396308
_cell_angle_beta   82.26130599
_cell_angle_gamma   70.17322413
_symmetry_Int_Tables_number   1
_chemical_formula_structural   Sr3NbH16
_chemical_formula_sum   'Sr3 Nb1 H16'
_cell_volume   221.10080624
_cell_formula_units_Z   1
loop_
 _symmetry_equiv_pos_site_id
 _symmetry_equiv_pos_as_xyz
  1  'x, y, z'
loop_
 _atom_site_type_symbol
 _atom_site_label
 _atom_site_symmetry_multiplicity
 _atom_site_fract_x
 _atom_site_fract_y
 _atom_site_fract_z
 _atom_site_occupancy
  Sr  Sr0  1  0.36934417  0.35451071  0.11034236  1
  Sr  Sr1  1  0.80346320  0.47074944  0.63647534  1
  Sr  Sr2  1  0.10800461  0.90863021  0.36122980  1
  Nb  Nb3  1  0.73852975  0.74819045  0.07835562  1
  H  H4  1  0.10592634  0.06010934  0.80628940  1
  H  H5  1  0.17883572  0.11224692  0.72051496  1
  H  H6  1  0.39488526  0.38185499  0.71132394  1
  H  H7  1  0.31088875  0.66985167  0.67667132  1
  H  H8  1  0.61055183  0.10584953  0.43222265  1
  H  H9  1  0.56217318  0.19104723  0.51492262  1
  H  H10  1  0.10392994  0.24292613  0.39469956  1
  H  H11  1  0.35362758  0.76552664  0.67707396  1
  H  H12  1  0.90542651  0.46110038  0.01426183  1
  H  H13  1  0.78978866  0.01630322  0.08448940  1
  H  H14  1  0.08330856  0.72586016  0.01616676  1
  H  H15  1  0.54154848  0.61985517  0.29805126  1
  H  H16  1  0.51698462  0.65852913  0.95305669  1
  H  H17  1  0.80246262  0.80045809  0.77044378  1
  H  H18  1  0.93892321  0.63718874  0.31473243  1
  H  H19  1  0.41461600  0.97358885  0.07666234  1
