# generated using pymatgen
data_SrNbH15
_symmetry_space_group_name_H-M   'P 1'
_cell_length_a   3.77244330
_cell_length_b   5.95213189
_cell_length_c   7.64163470
_cell_angle_alpha   110.62148279
_cell_angle_beta   105.54016273
_cell_angle_gamma   90.20588865
_symmetry_Int_Tables_number   1
_chemical_formula_structural   SrNbH15
_chemical_formula_sum   'Sr1 Nb1 H15'
_cell_volume   153.80561545
_cell_formula_units_Z   1
loop_
 _symmetry_equiv_pos_site_id
 _symmetry_equiv_pos_as_xyz
  1  'x, y, z'
loop_
 _atom_site_type_symbol
 _atom_site_label
 _atom_site_symmetry_multiplicity
 _atom_site_fract_x
 _atom_site_fract_y
 _atom_site_fract_z
 _atom_site_occupancy
  Sr  Sr0  1  0.93757016  0.43466754  0.62120156  1
  Nb  Nb1  1  0.40026985  0.97822833  0.70531468  1
  H  H2  1  0.92982813  0.60504217  0.01518321  1
  H  H3  1  0.12701965  0.65976746  0.07136681  1
  H  H4  1  0.57612026  0.44846199  0.17693578  1
  H  H5  1  0.15476043  0.19036277  0.85427741  1
  H  H6  1  0.53235970  0.30234193  0.75916495  1
  H  H7  1  0.12113536  0.86506577  0.82173914  1
  H  H8  1  0.53933235  0.70386159  0.75353657  1
  H  H9  1  0.26148108  0.03321510  0.47892306  1
  H  H10  1  0.22528139  0.71199315  0.48348752  1
  H  H11  1  0.87831662  0.95111280  0.59297548  1
  H  H12  1  0.68950180  0.55903777  0.25886388  1
  H  H13  1  0.15299570  0.18506732  0.25746027  1
  H  H14  1  0.13058221  0.29680272  0.23143580  1
  H  H15  1  0.56438516  0.95344411  0.14486035  1
  H  H16  1  0.65623315  0.94076150  0.23988554  1
