# generated using pymatgen
data_Sr2NbH15
_symmetry_space_group_name_H-M   'P 1'
_cell_length_a   4.85871487
_cell_length_b   5.57000907
_cell_length_c   6.95219929
_cell_angle_alpha   66.38296508
_cell_angle_beta   87.09154302
_cell_angle_gamma   89.33323290
_symmetry_Int_Tables_number   1
_chemical_formula_structural   Sr2NbH15
_chemical_formula_sum   'Sr2 Nb1 H15'
_cell_volume   172.15955803
_cell_formula_units_Z   1
loop_
 _symmetry_equiv_pos_site_id
 _symmetry_equiv_pos_as_xyz
  1  'x, y, z'
loop_
 _atom_site_type_symbol
 _atom_site_label
 _atom_site_symmetry_multiplicity
 _atom_site_fract_x
 _atom_site_fract_y
 _atom_site_fract_z
 _atom_site_occupancy
  Sr  Sr0  1  0.91015986  0.75656293  0.45217581  1
  Sr  Sr1  1  0.38643388  0.43044891  0.10203857  1
  Nb  Nb2  1  0.36267450  0.18064161  0.68178189  1
  H  H3  1  0.06206353  0.26688651  0.51917673  1
  H  H4  1  0.91593764  0.17858730  0.17463559  1
  H  H5  1  0.62162914  0.36275915  0.74797254  1
  H  H6  1  0.83560901  0.58757557  0.86584617  1
  H  H7  1  0.86968875  0.62602965  0.96189641  1
  H  H8  1  0.92802150  0.66050261  0.15282648  1
  H  H9  1  0.20704645  0.44567119  0.73524778  1
  H  H10  1  0.06107411  0.14958583  0.88060243  1
  H  H11  1  0.07378534  0.99872664  0.88234236  1
  H  H12  1  0.67927911  0.95612123  0.74534244  1
  H  H13  1  0.75682780  0.09493391  0.67185073  1
  H  H14  1  0.28247947  0.83150730  0.75610055  1
  H  H15  1  0.46618245  0.03030310  0.95862423  1
  H  H16  1  0.42334606  0.07630978  0.45921947  1
  H  H17  1  0.45306942  0.49023178  0.44681181  1
