# generated using pymatgen
data_Sr(NbH11)2
_symmetry_space_group_name_H-M   'P 1'
_cell_length_a   6.95817926
_cell_length_b   5.98910300
_cell_length_c   5.69980690
_cell_angle_alpha   88.89697015
_cell_angle_beta   74.59153362
_cell_angle_gamma   77.53855123
_symmetry_Int_Tables_number   1
_chemical_formula_structural   Sr(NbH11)2
_chemical_formula_sum   'Sr1 Nb2 H22'
_cell_volume   223.41399331
_cell_formula_units_Z   1
loop_
 _symmetry_equiv_pos_site_id
 _symmetry_equiv_pos_as_xyz
  1  'x, y, z'
loop_
 _atom_site_type_symbol
 _atom_site_label
 _atom_site_symmetry_multiplicity
 _atom_site_fract_x
 _atom_site_fract_y
 _atom_site_fract_z
 _atom_site_occupancy
  Sr  Sr0  1  0.03155064  0.96888702  0.77398629  1
  Nb  Nb1  1  0.70067779  0.30149838  0.39089017  1
  Nb  Nb2  1  0.69339675  0.80026712  0.39586959  1
  H  H3  1  0.43047513  0.36654346  0.46279415  1
  H  H4  1  0.60390786  0.57904129  0.23692298  1
  H  H5  1  0.26059063  0.65949432  0.07956287  1
  H  H6  1  0.14787311  0.66713760  0.12998197  1
  H  H7  1  0.88956158  0.99876423  0.33877326  1
  H  H8  1  0.06711362  0.42108342  0.83180390  1
  H  H9  1  0.17581351  0.39978855  0.74465424  1
  H  H10  1  0.59613593  0.57122900  0.60411652  1
  H  H11  1  0.82245027  0.27672625  0.63457175  1
  H  H12  1  0.43542279  0.33179159  0.03113656  1
  H  H13  1  0.50458308  0.34952426  0.91041467  1
  H  H14  1  0.84882698  0.27439364  0.07268945  1
  H  H15  1  0.34169799  0.97664246  0.03732976  1
  H  H16  1  0.40440682  0.98037211  0.90732013  1
  H  H17  1  0.12787979  0.23048840  0.35371827  1
  H  H18  1  0.23787627  0.20295236  0.36222809  1
  H  H19  1  0.87907990  0.51193170  0.34023039  1
  H  H20  1  0.60730375  0.07192163  0.60474926  1
  H  H21  1  0.82878052  0.75343851  0.62827033  1
  H  H22  1  0.61504133  0.07321169  0.23012810  1
  H  H23  1  0.41304914  0.87102901  0.48059782  1
  H  H24  1  0.82993284  0.76268299  0.07667746  1
