# generated using pymatgen
data_Sr(NbH6)2
_symmetry_space_group_name_H-M   'P 1'
_cell_length_a   5.39786796
_cell_length_b   5.61033886
_cell_length_c   5.21869229
_cell_angle_alpha   116.67549495
_cell_angle_beta   73.95308739
_cell_angle_gamma   95.26996494
_symmetry_Int_Tables_number   1
_chemical_formula_structural   Sr(NbH6)2
_chemical_formula_sum   'Sr1 Nb2 H12'
_cell_volume   135.62243041
_cell_formula_units_Z   1
loop_
 _symmetry_equiv_pos_site_id
 _symmetry_equiv_pos_as_xyz
  1  'x, y, z'
loop_
 _atom_site_type_symbol
 _atom_site_label
 _atom_site_symmetry_multiplicity
 _atom_site_fract_x
 _atom_site_fract_y
 _atom_site_fract_z
 _atom_site_occupancy
  Sr  Sr0  1  0.76648819  0.79205231  0.14471884  1
  Nb  Nb1  1  0.36248026  0.14619247  0.90998586  1
  Nb  Nb2  1  0.36016771  0.45213049  0.55764322  1
  H  H3  1  0.68385880  0.00308857  0.70363819  1
  H  H4  1  0.38267329  0.80559579  0.92725391  1
  H  H5  1  0.16473603  0.19103807  0.29763102  1
  H  H6  1  0.04691884  0.03426831  0.88061075  1
  H  H7  1  0.56417780  0.19905186  0.19226520  1
  H  H8  1  0.16354297  0.43534936  0.91666746  1
  H  H9  1  0.57380584  0.38062311  0.77445216  1
  H  H10  1  0.34274051  0.50865360  0.23847256  1
  H  H11  1  0.04938168  0.58963825  0.62669840  1
  H  H12  1  0.36556205  0.81137923  0.56413634  1
  H  H13  1  0.68094374  0.55489635  0.45358218  1
  H  H14  1  0.33617029  0.10183224  0.53950391  1
