# generated using pymatgen
data_Sr(NbH5)3
_symmetry_space_group_name_H-M   'P 1'
_cell_length_a   3.39586379
_cell_length_b   6.33726693
_cell_length_c   7.86995423
_cell_angle_alpha   87.51851147
_cell_angle_beta   77.73212352
_cell_angle_gamma   99.94787178
_symmetry_Int_Tables_number   1
_chemical_formula_structural   Sr(NbH5)3
_chemical_formula_sum   'Sr1 Nb3 H15'
_cell_volume   162.44550274
_cell_formula_units_Z   1
loop_
 _symmetry_equiv_pos_site_id
 _symmetry_equiv_pos_as_xyz
  1  'x, y, z'
loop_
 _atom_site_type_symbol
 _atom_site_label
 _atom_site_symmetry_multiplicity
 _atom_site_fract_x
 _atom_site_fract_y
 _atom_site_fract_z
 _atom_site_occupancy
  Sr  Sr0  1  0.40922020  0.69439113  0.87536383  1
  Nb  Nb1  1  0.05430226  0.58031692  0.50309612  1
  Nb  Nb2  1  0.61632531  0.34702574  0.24652762  1
  Nb  Nb3  1  0.80076960  0.89891353  0.24344938  1
  H  H4  1  0.05791889  0.80095060  0.65131877  1
  H  H5  1  0.66915466  0.12983529  0.72825108  1
  H  H6  1  0.47477181  0.39001241  0.49715285  1
  H  H7  1  0.83854613  0.06361422  0.70660975  1
  H  H8  1  0.60948783  0.10055418  0.39575004  1
  H  H9  1  0.09705238  0.19750454  0.17903638  1
  H  H10  1  0.68979041  0.19752021  0.03763259  1
  H  H11  1  0.72053373  0.33152527  0.99413346  1
  H  H12  1  0.76820005  0.63325589  0.11697675  1
  H  H13  1  0.89977098  0.48165374  0.73802579  1
  H  H14  1  0.93413007  0.94356863  0.00482774  1
  H  H15  1  0.57734813  0.71212230  0.54283433  1
  H  H16  1  0.15679579  0.49962030  0.26596383  1
  H  H17  1  0.34914759  0.88645175  0.13223847  1
  H  H18  1  0.19700820  0.85667737  0.39366121  1
