# generated using pymatgen
data_SrNbH15
_symmetry_space_group_name_H-M   'P 1'
_cell_length_a   3.99640932
_cell_length_b   5.55350421
_cell_length_c   6.83929823
_cell_angle_alpha   97.06511634
_cell_angle_beta   91.68216341
_cell_angle_gamma   88.95193916
_symmetry_Int_Tables_number   1
_chemical_formula_structural   SrNbH15
_chemical_formula_sum   'Sr1 Nb1 H15'
_cell_volume   150.55794114
_cell_formula_units_Z   1
loop_
 _symmetry_equiv_pos_site_id
 _symmetry_equiv_pos_as_xyz
  1  'x, y, z'
loop_
 _atom_site_type_symbol
 _atom_site_label
 _atom_site_symmetry_multiplicity
 _atom_site_fract_x
 _atom_site_fract_y
 _atom_site_fract_z
 _atom_site_occupancy
  Sr  Sr0  1  0.83528675  0.74556233  0.76968396  1
  Nb  Nb1  1  0.37224137  0.26343635  0.90974757  1
  H  H2  1  0.81333945  0.39840259  0.37008953  1
  H  H3  1  0.86085806  0.34717727  0.46378187  1
  H  H4  1  0.81008876  0.81923135  0.27957093  1
  H  H5  1  0.19667002  0.54083160  0.03401516  1
  H  H6  1  0.78326304  0.94628765  0.33019897  1
  H  H7  1  0.29332985  0.11609290  0.16586950  1
  H  H8  1  0.31301646  0.25418373  0.20807882  1
  H  H9  1  0.75219537  0.14135572  0.01781876  1
  H  H10  1  0.33139737  0.47899193  0.72318410  1
  H  H11  1  0.30695449  0.08651026  0.66446218  1
  H  H12  1  0.32896150  0.93862987  0.93912241  1
  H  H13  1  0.75716716  0.26093518  0.76456894  1
  H  H14  1  0.66527136  0.48959785  0.01855686  1
  H  H15  1  0.30226655  0.64563762  0.35495663  1
  H  H16  1  0.31075544  0.73704579  0.44407480  1
