# generated using pymatgen
data_Sr(Nb2H7)2
_symmetry_space_group_name_H-M   'P 1'
_cell_length_a   4.73087512
_cell_length_b   5.95679664
_cell_length_c   6.10481458
_cell_angle_alpha   91.08546537
_cell_angle_beta   73.34675457
_cell_angle_gamma   88.51457063
_symmetry_Int_Tables_number   1
_chemical_formula_structural   Sr(Nb2H7)2
_chemical_formula_sum   'Sr1 Nb4 H14'
_cell_volume   164.70517616
_cell_formula_units_Z   1
loop_
 _symmetry_equiv_pos_site_id
 _symmetry_equiv_pos_as_xyz
  1  'x, y, z'
loop_
 _atom_site_type_symbol
 _atom_site_label
 _atom_site_symmetry_multiplicity
 _atom_site_fract_x
 _atom_site_fract_y
 _atom_site_fract_z
 _atom_site_occupancy
  Sr  Sr0  1  0.70173442  0.75981076  0.25500378  1
  Nb  Nb1  1  0.20354454  0.24144258  0.12508904  1
  Nb  Nb2  1  0.44887582  0.30473986  0.57310312  1
  Nb  Nb3  1  0.89178622  0.07463890  0.76380815  1
  Nb  Nb4  1  0.34421920  0.77405040  0.81476109  1
  H  H5  1  0.25982826  0.91140444  0.11677566  1
  H  H6  1  0.09670792  0.32432579  0.84922280  1
  H  H7  1  0.24285952  0.58022977  0.60043369  1
  H  H8  1  0.86677711  0.11661420  0.07815392  1
  H  H9  1  0.56063378  0.30154026  0.88194196  1
  H  H10  1  0.82044835  0.36942143  0.31594195  1
  H  H11  1  0.06908433  0.27204920  0.52157367  1
  H  H12  1  0.23826766  0.91782070  0.58068007  1
  H  H13  1  0.64785909  0.56632969  0.63430860  1
  H  H14  1  0.63389532  0.96652049  0.60206065  1
  H  H15  1  0.46118706  0.13256302  0.29308974  1
  H  H16  1  0.37092380  0.43966577  0.31162731  1
  H  H17  1  0.19323645  0.56797099  0.07106249  1
  H  H18  1  0.87957615  0.76659376  0.84197331  1
