# generated using pymatgen
data_SrNbH6
_symmetry_space_group_name_H-M   'P 1'
_cell_length_a   3.49340206
_cell_length_b   3.49548711
_cell_length_c   8.48633390
_cell_angle_alpha   81.53067518
_cell_angle_beta   70.11794210
_cell_angle_gamma   60.47974676
_symmetry_Int_Tables_number   1
_chemical_formula_structural   SrNbH6
_chemical_formula_sum   'Sr1 Nb1 H6'
_cell_volume   84.77404132
_cell_formula_units_Z   1
loop_
 _symmetry_equiv_pos_site_id
 _symmetry_equiv_pos_as_xyz
  1  'x, y, z'
loop_
 _atom_site_type_symbol
 _atom_site_label
 _atom_site_symmetry_multiplicity
 _atom_site_fract_x
 _atom_site_fract_y
 _atom_site_fract_z
 _atom_site_occupancy
  Sr  Sr0  1  0.29614480  0.29875823  0.68825051  1
  Nb  Nb1  1  0.63376600  0.98806137  0.06624358  1
  H  H2  1  0.83971945  0.97340130  0.83145962  1
  H  H3  1  0.50969598  0.89953138  0.32086210  1
  H  H4  1  0.27026978  0.10606282  0.31578136  1
  H  H5  1  0.75325014  0.62399172  0.54431486  1
  H  H6  1  0.24020551  0.65728030  0.13849459  1
  H  H7  1  0.02330034  0.31761188  0.00497939  1
