# generated using pymatgen
data_Sr2NbH20
_symmetry_space_group_name_H-M   'P 1'
_cell_length_a   5.08672703
_cell_length_b   6.90628307
_cell_length_c   7.19289780
_cell_angle_alpha   70.66577652
_cell_angle_beta   75.53433494
_cell_angle_gamma   70.80541649
_symmetry_Int_Tables_number   1
_chemical_formula_structural   Sr2NbH20
_chemical_formula_sum   'Sr2 Nb1 H20'
_cell_volume   222.34851655
_cell_formula_units_Z   1
loop_
 _symmetry_equiv_pos_site_id
 _symmetry_equiv_pos_as_xyz
  1  'x, y, z'
loop_
 _atom_site_type_symbol
 _atom_site_label
 _atom_site_symmetry_multiplicity
 _atom_site_fract_x
 _atom_site_fract_y
 _atom_site_fract_z
 _atom_site_occupancy
  Sr  Sr0  1  -0.00423351  0.92045874  0.27173389  1
  Sr  Sr1  1  0.25988240  0.21072331  0.58654634  1
  Nb  Nb2  1  0.39491330  0.29943603  0.06281099  1
  H  H3  1  0.65633910  0.67349130  0.25994952  1
  H  H4  1  0.78225655  0.57874660  0.28070889  1
  H  H5  1  0.60366855  0.78447994  0.89677560  1
  H  H6  1  0.68645754  0.84027903  0.80224165  1
  H  H7  1  0.50501545  0.78482651  0.56811554  1
  H  H8  1  0.36787374  0.75785522  0.57563067  1
  H  H9  1  0.08548300  0.58635747  0.56193897  1
  H  H10  1  0.09689112  0.50293861  0.87017513  1
  H  H11  1  0.01332551  0.47967642  0.98122372  1
  H  H12  1  0.45604207  0.02983804  0.22402871  1
  H  H13  1  0.73436925  0.12433832  0.98405634  1
  H  H14  1  0.62300806  0.49545422  0.85764913  1
  H  H15  1  0.59336945  0.43409702  0.79002458  1
  H  H16  1  0.59923856  0.25968933  0.25608940  1
  H  H17  1  0.09893778  0.26838717  0.26798348  1
  H  H18  1  0.25760136  0.13832885  0.96415301  1
  H  H19  1  0.29923183  0.55471035  0.13498769  1
  H  H20  1  0.16486784  0.82843002  0.88500026  1
  H  H21  1  0.02344589  0.90480501  0.85748566  1
  H  H22  1  0.82383218  0.07052051  0.56502983  1
