# generated using pymatgen
data_Sr2NbH12
_symmetry_space_group_name_H-M   'P 1'
_cell_length_a   5.07629491
_cell_length_b   3.42772876
_cell_length_c   9.13128160
_cell_angle_alpha   80.67376574
_cell_angle_beta   85.39732363
_cell_angle_gamma   88.70426201
_symmetry_Int_Tables_number   1
_chemical_formula_structural   Sr2NbH12
_chemical_formula_sum   'Sr2 Nb1 H12'
_cell_volume   156.27249670
_cell_formula_units_Z   1
loop_
 _symmetry_equiv_pos_site_id
 _symmetry_equiv_pos_as_xyz
  1  'x, y, z'
loop_
 _atom_site_type_symbol
 _atom_site_label
 _atom_site_symmetry_multiplicity
 _atom_site_fract_x
 _atom_site_fract_y
 _atom_site_fract_z
 _atom_site_occupancy
  Sr  Sr0  1  0.16719303  0.70837210  0.17598460  1
  Sr  Sr1  1  0.62477407  0.44260941  0.79216483  1
  Nb  Nb2  1  0.63640622  0.09462282  0.41448542  1
  H  H3  1  0.52953258  0.01578350  0.61762310  1
  H  H4  1  -0.01410925  0.11977133  0.35976121  1
  H  H5  1  0.46349206  0.17432037  0.24297840  1
  H  H6  1  0.89539754  0.90989356  0.84919134  1
  H  H7  1  0.27427754  0.28181978  0.99261837  1
  H  H8  1  0.68935223  0.72171849  0.02799296  1
  H  H9  1  0.64502644  0.53551730  0.08407416  1
  H  H10  1  0.14354238  0.56393425  0.68007029  1
  H  H11  1  0.14193889  0.33908056  0.69590717  1
  H  H12  1  0.40667671  0.60468034  0.43159059  1
  H  H13  1  0.77530248  0.56166273  0.50644020  1
  H  H14  1  0.72028706  0.66447544  0.29935035  1
