# generated using pymatgen
data_SrNbH13
_symmetry_space_group_name_H-M   'P 1'
_cell_length_a   3.90019212
_cell_length_b   5.78934923
_cell_length_c   5.69067869
_cell_angle_alpha   69.88512536
_cell_angle_beta   89.31051339
_cell_angle_gamma   89.69882438
_symmetry_Int_Tables_number   1
_chemical_formula_structural   SrNbH13
_chemical_formula_sum   'Sr1 Nb1 H13'
_cell_volume   120.64684399
_cell_formula_units_Z   1
loop_
 _symmetry_equiv_pos_site_id
 _symmetry_equiv_pos_as_xyz
  1  'x, y, z'
loop_
 _atom_site_type_symbol
 _atom_site_label
 _atom_site_symmetry_multiplicity
 _atom_site_fract_x
 _atom_site_fract_y
 _atom_site_fract_z
 _atom_site_occupancy
  Sr  Sr0  1  0.27109485  0.19808923  0.01958484  1
  Nb  Nb1  1  0.66366340  0.56609824  0.37429183  1
  H  H2  1  0.68175791  0.78068529  0.58894404  1
  H  H3  1  0.79642246  0.86412909  0.47462922  1
  H  H4  1  0.92585647  0.60471196  0.91684305  1
  H  H5  1  0.11024726  0.63164302  0.87081768  1
  H  H6  1  0.50844397  0.59572332  0.07331929  1
  H  H7  1  0.29849412  0.06290751  0.62735625  1
  H  H8  1  0.23802971  0.93996069  0.71522130  1
  H  H9  1  0.76483204  0.87149085  0.12719771  1
  H  H10  1  0.78087638  0.30587600  0.68519174  1
  H  H11  1  0.75372280  0.28489776  0.29291538  1
  H  H12  1  0.26722995  0.39698861  0.38793980  1
  H  H13  1  0.39431489  0.55174688  0.62888216  1
  H  H14  1  0.27981478  0.75357255  0.29928872  1
