# generated using pymatgen
data_Sr2NbH17
_symmetry_space_group_name_H-M   'P 1'
_cell_length_a   5.45133748
_cell_length_b   5.43565479
_cell_length_c   7.48592002
_cell_angle_alpha   62.78539083
_cell_angle_beta   78.74618142
_cell_angle_gamma   89.25872474
_symmetry_Int_Tables_number   1
_chemical_formula_structural   Sr2NbH17
_chemical_formula_sum   'Sr2 Nb1 H17'
_cell_volume   192.72932346
_cell_formula_units_Z   1
loop_
 _symmetry_equiv_pos_site_id
 _symmetry_equiv_pos_as_xyz
  1  'x, y, z'
loop_
 _atom_site_type_symbol
 _atom_site_label
 _atom_site_symmetry_multiplicity
 _atom_site_fract_x
 _atom_site_fract_y
 _atom_site_fract_z
 _atom_site_occupancy
  Sr  Sr0  1  0.46906019  0.44238654  0.18911137  1
  Sr  Sr1  1  0.90707639  0.75198774  0.60256492  1
  Nb  Nb2  1  0.43470694  0.19318499  0.74196104  1
  H  H3  1  0.83161275  0.07798133  0.21010380  1
  H  H4  1  0.12076023  0.17121061  0.91121750  1
  H  H5  1  0.71257128  0.00853186  0.20692385  1
  H  H6  1  0.16648978  0.34570751  0.85669024  1
  H  H7  1  0.00395993  0.61735152  0.23098309  1
  H  H8  1  0.87201271  0.60851587  0.95713107  1
  H  H9  1  0.07588380  0.73429451  0.23422925  1
  H  H10  1  0.70907141  0.99283617  0.82279648  1
  H  H11  1  0.77928853  0.16965317  0.73586451  1
  H  H12  1  0.37399956  0.82337201  0.80257297  1
  H  H13  1  0.21879271  0.87005176  0.84369665  1
  H  H14  1  0.42765330  0.98320941  0.01969336  1
  H  H15  1  0.55259790  0.39765165  0.85238402  1
  H  H16  1  0.19753827  0.26321063  0.57727474  1
  H  H17  1  0.58581149  0.13497955  0.51914801  1
  H  H18  1  0.51821583  0.55928177  0.53269332  1
  H  H19  1  0.13510701  0.10709739  0.29622481  1
