# generated using pymatgen
data_SrNbH6
_symmetry_space_group_name_H-M   'P 1'
_cell_length_a   3.51779934
_cell_length_b   3.51814239
_cell_length_c   5.64638514
_cell_angle_alpha   90.13946808
_cell_angle_beta   89.90763817
_cell_angle_gamma   89.57906584
_symmetry_Int_Tables_number   1
_chemical_formula_structural   SrNbH6
_chemical_formula_sum   'Sr1 Nb1 H6'
_cell_volume   69.87814861
_cell_formula_units_Z   1
loop_
 _symmetry_equiv_pos_site_id
 _symmetry_equiv_pos_as_xyz
  1  'x, y, z'
loop_
 _atom_site_type_symbol
 _atom_site_label
 _atom_site_symmetry_multiplicity
 _atom_site_fract_x
 _atom_site_fract_y
 _atom_site_fract_z
 _atom_site_occupancy
  Sr  Sr0  1  0.72938316  0.07709236  0.92634725  1
  Nb  Nb1  1  0.26089045  0.60760270  0.42603597  1
  H  H2  1  0.70832357  0.58724252  0.60000330  1
  H  H3  1  0.24415310  0.05633571  0.59980970  1
  H  H4  1  0.21152785  0.55522212  0.09330572  1
  H  H5  1  0.24095686  0.05436110  0.25297185  1
  H  H6  1  0.70926728  0.59277940  0.25284087  1
  H  H7  1  0.20941173  0.55886109  0.75961433  1
