# generated using pymatgen
data_Sr(NbH10)2
_symmetry_space_group_name_H-M   'P 1'
_cell_length_a   5.38668520
_cell_length_b   5.70309328
_cell_length_c   6.61933132
_cell_angle_alpha   80.53373590
_cell_angle_beta   96.74183514
_cell_angle_gamma   98.00753878
_symmetry_Int_Tables_number   1
_chemical_formula_structural   Sr(NbH10)2
_chemical_formula_sum   'Sr1 Nb2 H20'
_cell_volume   197.69463386
_cell_formula_units_Z   1
loop_
 _symmetry_equiv_pos_site_id
 _symmetry_equiv_pos_as_xyz
  1  'x, y, z'
loop_
 _atom_site_type_symbol
 _atom_site_label
 _atom_site_symmetry_multiplicity
 _atom_site_fract_x
 _atom_site_fract_y
 _atom_site_fract_z
 _atom_site_occupancy
  Sr  Sr0  1  0.28832110  0.15000707  0.73571678  1
  Nb  Nb1  1  0.80648114  0.81909378  0.11065050  1
  Nb  Nb2  1  0.80524323  0.29050558  0.26368979  1
  H  H3  1  0.54879176  0.80703712  0.90865558  1
  H  H4  1  0.57961467  0.51244797  0.13234869  1
  H  H5  1  0.12830306  0.85629040  0.06808860  1
  H  H6  1  0.00186302  0.12676327  0.12063349  1
  H  H7  1  0.87731560  0.92494950  0.84592410  1
  H  H8  1  0.51477448  0.24552129  0.38928227  1
  H  H9  1  0.13055692  0.32158941  0.36927992  1
  H  H10  1  0.34040257  0.93334862  0.43872489  1
  H  H11  1  0.21416811  0.86419887  0.46142739  1
  H  H12  1  0.79465283  0.94705753  0.35749513  1
  H  H13  1  0.84808295  0.22815225  0.53835648  1
  H  H14  1  0.10441064  0.59080067  0.67914499  1
  H  H15  1  0.13794542  0.60344540  0.79144431  1
  H  H16  1  0.75056398  0.36552249  0.84489882  1
  H  H17  1  0.76048284  0.34725023  0.73529174  1
  H  H18  1  0.53104817  0.63214916  0.64545795  1
  H  H19  1  0.52340296  0.58511586  0.54464860  1
  H  H20  1  0.58890788  0.07709070  0.09225472  1
  H  H21  1  0.87014713  0.59524348  0.36003229  1
  H  H22  1  0.97182753  0.54466737  0.08511296  1
