# generated using pymatgen
data_Sr3(NbH8)2
_symmetry_space_group_name_H-M   'P 1'
_cell_length_a   6.55287147
_cell_length_b   5.05910903
_cell_length_c   7.32758648
_cell_angle_alpha   70.07761017
_cell_angle_beta   89.04831386
_cell_angle_gamma   66.77723745
_symmetry_Int_Tables_number   1
_chemical_formula_structural   Sr3(NbH8)2
_chemical_formula_sum   'Sr3 Nb2 H16'
_cell_volume   207.92194983
_cell_formula_units_Z   1
loop_
 _symmetry_equiv_pos_site_id
 _symmetry_equiv_pos_as_xyz
  1  'x, y, z'
loop_
 _atom_site_type_symbol
 _atom_site_label
 _atom_site_symmetry_multiplicity
 _atom_site_fract_x
 _atom_site_fract_y
 _atom_site_fract_z
 _atom_site_occupancy
  Sr  Sr0  1  0.60450239  0.32409290  0.18370077  1
  Sr  Sr1  1  0.38254985  0.13788973  0.77999547  1
  Sr  Sr2  1  0.82350975  0.50661130  0.58370257  1
  Nb  Nb3  1  0.24139361  0.90613911  0.37896345  1
  Nb  Nb4  1  0.96173521  0.73977893  0.98370599  1
  H  H5  1  0.80007258  0.71825428  0.19315072  1
  H  H6  1  0.72483316  0.64909001  0.92462142  1
  H  H7  1  0.47847197  0.51190649  0.44545300  1
  H  H8  1  0.16757794  0.18917593  0.49304055  1
  H  H9  1  0.10266826  0.81623522  0.18451242  1
  H  H10  1  0.40445428  0.91779658  0.17037312  1
  H  H11  1  0.94047968  0.04781001  0.41652351  1
  H  H12  1  0.15911981  0.60087313  0.50946367  1
  H  H13  1  0.26425703  0.59225647  0.95583507  1
  H  H14  1  0.09241666  0.31418074  0.17110896  1
  H  H15  1  0.48294693  0.98923929  0.43599830  1
  H  H16  1  0.04766661  0.04513439  0.85524852  1
  H  H17  1  0.83225942  0.93571608  0.72502769  1
  H  H18  1  0.72620430  0.13293481  0.92556610  1
  H  H19  1  0.36087789  0.72536456  0.64063350  1
  H  H20  1  0.04076265  0.48018004  0.85230521  1
