# generated using pymatgen
data_Sr(NbH4)2
_symmetry_space_group_name_H-M   'P 1'
_cell_length_a   3.52270950
_cell_length_b   6.89256437
_cell_length_c   8.02211360
_cell_angle_alpha   102.76604652
_cell_angle_beta   77.32190843
_cell_angle_gamma   90.10195957
_symmetry_Int_Tables_number   1
_chemical_formula_structural   Sr(NbH4)2
_chemical_formula_sum   'Sr2 Nb4 H16'
_cell_volume   185.11087522
_cell_formula_units_Z   2
loop_
 _symmetry_equiv_pos_site_id
 _symmetry_equiv_pos_as_xyz
  1  'x, y, z'
loop_
 _atom_site_type_symbol
 _atom_site_label
 _atom_site_symmetry_multiplicity
 _atom_site_fract_x
 _atom_site_fract_y
 _atom_site_fract_z
 _atom_site_occupancy
  Sr  Sr0  1  0.53923603  0.68345413  0.15087136  1
  Sr  Sr1  1  0.55311508  0.17383934  0.13758939  1
  Nb  Nb2  1  0.86410303  0.02305325  0.50974779  1
  Nb  Nb3  1  0.23210250  0.34580519  0.77875082  1
  Nb  Nb4  1  0.86520803  0.51972514  0.50339434  1
  Nb  Nb5  1  0.22888323  0.83120858  0.78027112  1
  H  H6  1  0.98513947  0.45753586  0.26336067  1
  H  H7  1  0.92756832  0.24186920  0.38607562  1
  H  H8  1  0.78351964  0.82237993  0.66434667  1
  H  H9  1  0.17341283  0.12318503  0.90213093  1
  H  H10  1  0.11208154  0.42225741  0.01997259  1
  H  H11  1  0.29984779  0.56774116  0.62880143  1
  H  H12  1  0.67397529  0.35715618  0.89605769  1
  H  H13  1  0.98463586  0.96562046  0.26970807  1
  H  H14  1  0.92046525  0.74474629  0.39047179  1
  H  H15  1  0.79840845  0.31086981  0.64375499  1
  H  H16  1  0.48000320  0.62730762  0.84039131  1
  H  H17  1  0.29620893  0.05300336  0.64593199  1
  H  H18  1  0.10746747  0.88465149  0.02450406  1
  H  H19  1  0.42347083  0.48169657  0.38466864  1
  H  H20  1  0.42332344  0.99878482  0.39279926  1
  H  H21  1  0.95724678  0.61825719  0.85455047  1
