# generated using pymatgen
data_SrNbH23
_symmetry_space_group_name_H-M   'P 1'
_cell_length_a   5.92622508
_cell_length_b   4.98928650
_cell_length_c   7.84189196
_cell_angle_alpha   86.20539329
_cell_angle_beta   97.74435567
_cell_angle_gamma   90.97070911
_symmetry_Int_Tables_number   1
_chemical_formula_structural   SrNbH23
_chemical_formula_sum   'Sr1 Nb1 H23'
_cell_volume   229.24015547
_cell_formula_units_Z   1
loop_
 _symmetry_equiv_pos_site_id
 _symmetry_equiv_pos_as_xyz
  1  'x, y, z'
loop_
 _atom_site_type_symbol
 _atom_site_label
 _atom_site_symmetry_multiplicity
 _atom_site_fract_x
 _atom_site_fract_y
 _atom_site_fract_z
 _atom_site_occupancy
  Sr  Sr0  1  0.86481157  0.04672954  0.18831968  1
  Nb  Nb1  1  0.35381741  0.64652480  0.18628953  1
  H  H2  1  0.28626534  0.44380777  0.97214205  1
  H  H3  1  0.28337406  0.59697771  0.92967344  1
  H  H4  1  0.24385098  0.18030507  0.67519378  1
  H  H5  1  0.27143366  0.10084378  0.75951420  1
  H  H6  1  0.42340560  0.47968021  0.43439038  1
  H  H7  1  0.38470705  0.35226808  0.37861011  1
  H  H8  1  0.79370835  0.32500737  0.84657857  1
  H  H9  1  0.74728863  0.41633710  0.90616082  1
  H  H10  1  0.44949600  0.74281618  0.63369976  1
  H  H11  1  0.49399841  0.67224189  0.71852573  1
  H  H12  1  0.03417667  0.63338000  0.55790879  1
  H  H13  1  0.95747755  0.61596356  0.62696248  1
  H  H14  1  0.82879108  0.19855814  0.54742232  1
  H  H15  1  0.74866739  0.08180592  0.52878341  1
  H  H16  1  0.89727829  0.87085293  0.86652550  1
  H  H17  1  0.77056288  0.88310820  0.84504121  1
  H  H18  1  0.17383657  0.89536552  0.05251555  1
  H  H19  1  0.50223187  0.87039300  0.04296087  1
  H  H20  1  0.23222758  0.84056706  0.34338052  1
  H  H21  1  0.63577395  0.49899281  0.16907837  1
  H  H22  1  0.05172432  0.54275907  0.19327626  1
  H  H23  1  0.32475894  0.29035243  0.16953996  1
  H  H24  1  0.56979486  0.81511087  0.33356771  1
