# generated using pymatgen
data_SrNbH9
_symmetry_space_group_name_H-M   'P 1'
_cell_length_a   3.43704659
_cell_length_b   4.82323633
_cell_length_c   6.04276722
_cell_angle_alpha   68.24894140
_cell_angle_beta   89.31494517
_cell_angle_gamma   90.58241353
_symmetry_Int_Tables_number   1
_chemical_formula_structural   SrNbH9
_chemical_formula_sum   'Sr1 Nb1 H9'
_cell_volume   93.02477269
_cell_formula_units_Z   1
loop_
 _symmetry_equiv_pos_site_id
 _symmetry_equiv_pos_as_xyz
  1  'x, y, z'
loop_
 _atom_site_type_symbol
 _atom_site_label
 _atom_site_symmetry_multiplicity
 _atom_site_fract_x
 _atom_site_fract_y
 _atom_site_fract_z
 _atom_site_occupancy
  Sr  Sr0  1  0.21950805  0.67138731  0.86017555  1
  Nb  Nb1  1  0.75058892  0.00689693  0.28332680  1
  H  H2  1  0.12041057  0.27701945  0.67086003  1
  H  H3  1  0.34284410  0.28217025  0.67727312  1
  H  H4  1  0.72744887  0.70166907  0.16582021  1
  H  H5  1  0.70422912  0.28263871  0.96056409  1
  H  H6  1  0.17580288  0.02769517  0.09357081  1
  H  H7  1  0.20533848  0.25164524  0.28525677  1
  H  H8  1  0.18794523  0.80965736  0.42690232  1
  H  H9  1  0.68694435  0.63172524  0.50440408  1
  H  H10  1  0.74347742  0.99527626  0.59015322  1
