# generated using pymatgen
data_SrNb3H14
_symmetry_space_group_name_H-M   'P 1'
_cell_length_a   5.52970480
_cell_length_b   3.61743810
_cell_length_c   7.72633171
_cell_angle_alpha   90.72230903
_cell_angle_beta   85.12130623
_cell_angle_gamma   71.85576305
_symmetry_Int_Tables_number   1
_chemical_formula_structural   SrNb3H14
_chemical_formula_sum   'Sr1 Nb3 H14'
_cell_volume   146.21072117
_cell_formula_units_Z   1
loop_
 _symmetry_equiv_pos_site_id
 _symmetry_equiv_pos_as_xyz
  1  'x, y, z'
loop_
 _atom_site_type_symbol
 _atom_site_label
 _atom_site_symmetry_multiplicity
 _atom_site_fract_x
 _atom_site_fract_y
 _atom_site_fract_z
 _atom_site_occupancy
  Sr  Sr0  1  0.17620244  0.67262677  0.97563431  1
  Nb  Nb1  1  0.85450105  0.32288580  0.32887917  1
  Nb  Nb2  1  0.67555027  0.91679309  0.66866829  1
  Nb  Nb3  1  0.27095525  0.60669720  0.46983283  1
  H  H4  1  0.89631848  0.30598939  0.08935479  1
  H  H5  1  0.44017836  0.04841276  0.86422535  1
  H  H6  1  0.78125079  0.08955941  0.85318914  1
  H  H7  1  0.90235113  0.80474721  0.44688728  1
  H  H8  1  0.82834934  0.35687905  0.60089672  1
  H  H9  1  0.03752477  0.75132189  0.68157376  1
  H  H10  1  0.28329578  0.10617162  0.58116106  1
  H  H11  1  0.45842041  0.53972505  0.67944174  1
  H  H12  1  0.77210655  0.62601088  0.84895415  1
  H  H13  1  0.19259998  0.37914321  0.27061469  1
  H  H14  1  0.80233267  0.85492330  0.21588804  1
  H  H15  1  0.17002745  0.92394479  0.27808489  1
  H  H16  1  0.50900362  0.62608124  0.27922264  1
  H  H17  1  0.55414064  0.18165536  0.41579814  1
