# generated using pymatgen
data_SrNbH21
_symmetry_space_group_name_H-M   'P 1'
_cell_length_a   6.12960617
_cell_length_b   5.98871484
_cell_length_c   6.26270898
_cell_angle_alpha   100.41142647
_cell_angle_beta   95.58863694
_cell_angle_gamma   66.98248480
_symmetry_Int_Tables_number   1
_chemical_formula_structural   SrNbH21
_chemical_formula_sum   'Sr1 Nb1 H21'
_cell_volume   208.01700151
_cell_formula_units_Z   1
loop_
 _symmetry_equiv_pos_site_id
 _symmetry_equiv_pos_as_xyz
  1  'x, y, z'
loop_
 _atom_site_type_symbol
 _atom_site_label
 _atom_site_symmetry_multiplicity
 _atom_site_fract_x
 _atom_site_fract_y
 _atom_site_fract_z
 _atom_site_occupancy
  Sr  Sr0  1  0.73759563  0.76616988  0.68790679  1
  Nb  Nb1  1  0.39380541  0.40691940  0.78914007  1
  H  H2  1  0.41678919  0.75825940  0.34341735  1
  H  H3  1  0.40802549  0.88802218  0.34545608  1
  H  H4  1  0.04074067  0.06201606  0.53183230  1
  H  H5  1  0.92577026  0.06834500  0.47115876  1
  H  H6  1  0.79764314  0.50674174  0.24640157  1
  H  H7  1  0.91541779  0.47028783  0.30991707  1
  H  H8  1  0.17109162  0.45546663  0.56280644  1
  H  H9  1  0.22073778  0.76827086  0.86474500  1
  H  H10  1  0.24257889  0.74706332  0.73467485  1
  H  H11  1  0.58868289  0.56612627  0.92346829  1
  H  H12  1  0.09545903  0.48757472  0.89195787  1
  H  H13  1  0.75278741  0.95887674  0.12982705  1
  H  H14  1  0.74654038  0.83624562  0.13307736  1
  H  H15  1  0.12427838  0.12500473  0.06102822  1
  H  H16  1  0.10251888  0.07158232  0.15199744  1
  H  H17  1  0.33676557  0.41088674  0.11045413  1
  H  H18  1  0.47741624  0.34380580  0.10440373  1
  H  H19  1  0.36014906  0.11484597  0.79524410  1
  H  H20  1  0.69207060  0.18347409  0.84505357  1
  H  H21  1  0.49436808  0.19355396  0.54651329  1
  H  H22  1  0.50504058  0.50992976  0.57992368  1
