# generated using pymatgen
data_SrNbH21
_symmetry_space_group_name_H-M   'P 1'
_cell_length_a   5.30578797
_cell_length_b   5.60832760
_cell_length_c   7.22175509
_cell_angle_alpha   97.59095368
_cell_angle_beta   104.14981375
_cell_angle_gamma   105.09231686
_symmetry_Int_Tables_number   1
_chemical_formula_structural   SrNbH21
_chemical_formula_sum   'Sr1 Nb1 H21'
_cell_volume   196.74068899
_cell_formula_units_Z   1
loop_
 _symmetry_equiv_pos_site_id
 _symmetry_equiv_pos_as_xyz
  1  'x, y, z'
loop_
 _atom_site_type_symbol
 _atom_site_label
 _atom_site_symmetry_multiplicity
 _atom_site_fract_x
 _atom_site_fract_y
 _atom_site_fract_z
 _atom_site_occupancy
  Sr  Sr0  1  0.20948207  0.37476003  0.46234344  1
  Nb  Nb1  1  0.92249776  0.82313061  0.66020518  1
  H  H2  1  0.02424694  0.66368069  0.20114931  1
  H  H3  1  0.59872948  0.70391694  0.03216520  1
  H  H4  1  0.06247326  0.61028571  0.11492618  1
  H  H5  1  0.59932918  0.96851241  0.64676861  1
  H  H6  1  0.73030737  0.07555403  0.72268687  1
  H  H7  1  0.34618216  0.36744619  0.11793730  1
  H  H8  1  0.22287010  0.26177709  0.06127952  1
  H  H9  1  0.91713296  0.91927822  0.90918697  1
  H  H10  1  0.27946544  0.94851961  0.84035614  1
  H  H11  1  0.12637824  0.15537695  0.72670001  1
  H  H12  1  0.86094984  0.95904985  0.44351938  1
  H  H13  1  0.35403136  0.00070558  0.25585237  1
  H  H14  1  0.49069593  0.04106358  0.33186744  1
  H  H15  1  0.17347552  0.79608732  0.52860678  1
  H  H16  1  0.59342698  0.72333367  0.13555229  1
  H  H17  1  0.23990714  0.79082874  0.83624047  1
  H  H18  1  0.72857035  0.25440499  0.13858036  1
  H  H19  1  0.77307565  0.15251491  0.08766522  1
  H  H20  1  0.00757611  0.53801270  0.71198914  1
  H  H21  1  0.71548903  0.56196182  0.44214932  1
  H  H22  1  0.63341814  0.62327936  0.72311852  1
