# generated using pymatgen
data_Sr(NbH7)3
_symmetry_space_group_name_H-M   'P 1'
_cell_length_a   5.51880503
_cell_length_b   5.90065588
_cell_length_c   7.52806662
_cell_angle_alpha   104.01311415
_cell_angle_beta   106.14012219
_cell_angle_gamma   92.32860718
_symmetry_Int_Tables_number   1
_chemical_formula_structural   Sr(NbH7)3
_chemical_formula_sum   'Sr1 Nb3 H21'
_cell_volume   226.94009168
_cell_formula_units_Z   1
loop_
 _symmetry_equiv_pos_site_id
 _symmetry_equiv_pos_as_xyz
  1  'x, y, z'
loop_
 _atom_site_type_symbol
 _atom_site_label
 _atom_site_symmetry_multiplicity
 _atom_site_fract_x
 _atom_site_fract_y
 _atom_site_fract_z
 _atom_site_occupancy
  Sr  Sr0  1  0.63137300  0.40334575  0.41813151  1
  Nb  Nb1  1  0.35632794  0.77004586  0.79052916  1
  Nb  Nb2  1  0.22440864  0.34839808  0.90518279  1
  Nb  Nb3  1  0.10702848  0.96398279  0.46779194  1
  H  H4  1  0.63956334  0.73232196  0.72617450  1
  H  H5  1  0.64252264  0.90800851  0.96868738  1
  H  H6  1  0.03068737  0.84920496  0.66845052  1
  H  H7  1  0.31390797  0.04312036  0.96592202  1
  H  H8  1  0.90017024  0.26673860  0.94820401  1
  H  H9  1  0.00212720  0.51512013  0.98496608  1
  H  H10  1  0.24668480  0.40629986  0.15428545  1
  H  H11  1  0.99757791  0.18899057  0.63431637  1
  H  H12  1  0.94045879  0.13293155  0.92780142  1
  H  H13  1  0.53882957  0.38293520  0.06037390  1
  H  H14  1  0.96534218  0.89915926  0.18513716  1
  H  H15  1  0.11657766  0.92132349  0.20155820  1
  H  H16  1  0.38775239  0.00868723  0.39757019  1
  H  H17  1  0.78730586  0.02369655  0.36819472  1
  H  H18  1  0.87939849  0.70664398  0.34365714  1
  H  H19  1  0.13011929  0.24946673  0.41343656  1
  H  H20  1  0.34535966  0.66068888  0.01968307  1
  H  H21  1  0.07078547  0.55066461  0.75603335  1
  H  H22  1  0.29718609  0.69535740  0.51802332  1
  H  H23  1  0.46481499  0.46549940  0.79237672  1
  H  H24  1  0.38758303  0.05682530  0.70138653  1
