# generated using pymatgen
data_SrNbH6
_symmetry_space_group_name_H-M   'P 1'
_cell_length_a   3.24991237
_cell_length_b   7.15504290
_cell_length_c   4.49237233
_cell_angle_alpha   125.37683348
_cell_angle_beta   89.49418017
_cell_angle_gamma   108.94696753
_symmetry_Int_Tables_number   1
_chemical_formula_structural   SrNbH6
_chemical_formula_sum   'Sr1 Nb1 H6'
_cell_volume   78.35584097
_cell_formula_units_Z   1
loop_
 _symmetry_equiv_pos_site_id
 _symmetry_equiv_pos_as_xyz
  1  'x, y, z'
loop_
 _atom_site_type_symbol
 _atom_site_label
 _atom_site_symmetry_multiplicity
 _atom_site_fract_x
 _atom_site_fract_y
 _atom_site_fract_z
 _atom_site_occupancy
  Sr  Sr0  1  0.83145874  0.12227844  0.16911626  1
  Nb  Nb1  1  0.66464442  0.58036190  0.10722948  1
  H  H2  1  0.26677551  0.73537145  0.05896439  1
  H  H3  1  0.03103889  0.39022156  0.85132687  1
  H  H4  1  0.43428707  0.25460102  0.96120251  1
  H  H5  1  0.59219904  0.48116091  0.62554173  1
  H  H6  1  0.19898467  0.62634576  0.40400025  1
  H  H7  1  0.89338066  0.91940094  0.49709249  1
