# generated using pymatgen
data_SrNbH13
_symmetry_space_group_name_H-M   'P 1'
_cell_length_a   3.90682227
_cell_length_b   5.29770318
_cell_length_c   6.40580750
_cell_angle_alpha   69.97996846
_cell_angle_beta   101.28497721
_cell_angle_gamma   89.76696006
_symmetry_Int_Tables_number   1
_chemical_formula_structural   SrNbH13
_chemical_formula_sum   'Sr1 Nb1 H13'
_cell_volume   121.79834352
_cell_formula_units_Z   1
loop_
 _symmetry_equiv_pos_site_id
 _symmetry_equiv_pos_as_xyz
  1  'x, y, z'
loop_
 _atom_site_type_symbol
 _atom_site_label
 _atom_site_symmetry_multiplicity
 _atom_site_fract_x
 _atom_site_fract_y
 _atom_site_fract_z
 _atom_site_occupancy
  Sr  Sr0  1  0.75498395  0.98254649  0.98084098  1
  Nb  Nb1  1  0.19449973  0.65100728  0.61063188  1
  H  H2  1  0.88845829  0.45697520  0.18134164  1
  H  H3  1  0.86505417  0.47628157  0.05602907  1
  H  H4  1  0.24003851  0.30591231  0.83308533  1
  H  H5  1  0.09399202  0.04443754  0.50511462  1
  H  H6  1  0.89817682  -0.00663214  0.46455156  1
  H  H7  1  0.43371895  0.18080505  0.27067665  1
  H  H8  1  0.39699050  0.29817881  0.15838532  1
  H  H9  1  0.29161950  0.39288037  0.50783741  1
  H  H10  1  0.45640035  0.92974671  0.60383929  1
  H  H11  1  0.86229978  0.64897086  0.37960074  1
  H  H12  1  0.30457107  0.77884562  0.33075205  1
  H  H13  1  0.22977467  0.74213531  0.88296733  1
  H  H14  1  0.71572270  0.55428804  0.69917111  1
