# generated using pymatgen
data_Sr(NbH9)2
_symmetry_space_group_name_H-M   'P 1'
_cell_length_a   3.89022772
_cell_length_b   5.79024108
_cell_length_c   8.05704787
_cell_angle_alpha   92.04724006
_cell_angle_beta   103.12108051
_cell_angle_gamma   93.68726211
_symmetry_Int_Tables_number   1
_chemical_formula_structural   Sr(NbH9)2
_chemical_formula_sum   'Sr1 Nb2 H18'
_cell_volume   176.14719443
_cell_formula_units_Z   1
loop_
 _symmetry_equiv_pos_site_id
 _symmetry_equiv_pos_as_xyz
  1  'x, y, z'
loop_
 _atom_site_type_symbol
 _atom_site_label
 _atom_site_symmetry_multiplicity
 _atom_site_fract_x
 _atom_site_fract_y
 _atom_site_fract_z
 _atom_site_occupancy
  Sr  Sr0  1  0.11868319  0.06233847  0.71425264  1
  Nb  Nb1  1  0.33091563  0.86470633  0.22192378  1
  Nb  Nb2  1  0.44465811  0.56703020  0.55329066  1
  H  H3  1  0.63371888  0.62321198  0.22527942  1
  H  H4  1  0.18831909  0.58761267  0.31213200  1
  H  H5  1  0.62273253  0.77332340  0.75064037  1
  H  H6  1  0.74364054  0.24989862  0.00797051  1
  H  H7  1  0.72245408  0.33910587  0.94130398  1
  H  H8  1  0.02338843  0.89994230  0.02668002  1
  H  H9  1  0.48991766  0.89468028  0.03345312  1
  H  H10  1  0.09794084  0.67751400  0.05130446  1
  H  H11  1  0.27714411  0.49024988  0.73362666  1
  H  H12  1  0.50483293  0.62256148  0.11978660  1
  H  H13  1  0.28497125  0.18295478  0.14520336  1
  H  H14  1  0.17596474  0.30000175  0.49111758  1
  H  H15  1  0.40062187  0.22156634  0.24022271  1
  H  H16  1  0.61806598  0.36531793  0.42816612  1
  H  H17  1  0.82880313  0.95445576  0.26968523  1
  H  H18  1  0.65874972  0.33280689  0.67985355  1
  H  H19  1  0.46403175  0.88881655  0.48111892  1
  H  H20  1  0.95809755  0.66433252  0.55019230  1
