# generated using pymatgen
data_Sr2Nb4H17
_symmetry_space_group_name_H-M   'P 1'
_cell_length_a   3.48929496
_cell_length_b   6.94458420
_cell_length_c   8.02344106
_cell_angle_alpha   102.38011291
_cell_angle_beta   102.48469432
_cell_angle_gamma   90.22327818
_symmetry_Int_Tables_number   1
_chemical_formula_structural   Sr2Nb4H17
_chemical_formula_sum   'Sr2 Nb4 H17'
_cell_volume   185.15275174
_cell_formula_units_Z   1
loop_
 _symmetry_equiv_pos_site_id
 _symmetry_equiv_pos_as_xyz
  1  'x, y, z'
loop_
 _atom_site_type_symbol
 _atom_site_label
 _atom_site_symmetry_multiplicity
 _atom_site_fract_x
 _atom_site_fract_y
 _atom_site_fract_z
 _atom_site_occupancy
  Sr  Sr0  1  0.58158786  0.29739284  0.84877537  1
  Sr  Sr1  1  0.57719054  0.79876130  0.85363092  1
  Nb  Nb2  1  0.25752257  0.63335234  0.21700454  1
  Nb  Nb3  1  0.88678591  0.46175936  0.48733388  1
  Nb  Nb4  1  0.89860975  0.95536692  0.49109379  1
  Nb  Nb5  1  0.26156157  0.14456704  0.22049453  1
  H  H6  1  0.33188585  0.91878163  0.35202178  1
  H  H7  1  0.46028564  0.98787571  0.60841963  1
  H  H8  1  0.19861431  0.85707042  0.09360878  1
  H  H9  1  0.70284574  0.09697320  0.09725675  1
  H  H10  1  0.70214340  0.61877438  0.09971494  1
  H  H11  1  0.83168207  0.67702611  0.35542129  1
  H  H12  1  0.01388866  0.51944077  0.73236054  1
  H  H13  1  0.14703809  0.55659608  0.97770926  1
  H  H14  1  0.37310549  0.30640637  0.45838226  1
  H  H15  1  0.43250841  0.57200352  0.56971713  1
  H  H16  1  0.54387344  0.39694297  0.24233364  1
  H  H17  1  0.02058820  0.37060252  0.14659351  1
  H  H18  1  0.01821517  0.01330783  0.73016976  1
  H  H19  1  0.14685484  0.10102853  0.97443094  1
  H  H20  1  0.95791607  0.73840471  0.61080448  1
  H  H21  1  0.96247551  0.23503799  0.60912609  1
  H  H22  1  0.82396491  0.16179846  0.34993718  1
