# generated using pymatgen
data_SrNbH13
_symmetry_space_group_name_H-M   'P 1'
_cell_length_a   3.91986082
_cell_length_b   5.79075288
_cell_length_c   5.81880591
_cell_angle_alpha   70.30921595
_cell_angle_beta   91.62414698
_cell_angle_gamma   93.32506449
_symmetry_Int_Tables_number   1
_chemical_formula_structural   SrNbH13
_chemical_formula_sum   'Sr1 Nb1 H13'
_cell_volume   124.14251092
_cell_formula_units_Z   1
loop_
 _symmetry_equiv_pos_site_id
 _symmetry_equiv_pos_as_xyz
  1  'x, y, z'
loop_
 _atom_site_type_symbol
 _atom_site_label
 _atom_site_symmetry_multiplicity
 _atom_site_fract_x
 _atom_site_fract_y
 _atom_site_fract_z
 _atom_site_occupancy
  Sr  Sr0  1  0.00710416  0.06092749  0.06695987  1
  Nb  Nb1  1  0.54977377  0.42193470  0.37102220  1
  H  H2  1  0.90085672  0.93448045  0.67658120  1
  H  H3  1  0.79908148  0.29188270  0.64080709  1
  H  H4  1  0.53147446  0.67759851  0.53566595  1
  H  H5  1  0.01349068  0.36819730  0.29387311  1
  H  H6  1  0.48082192  0.74206970  0.12171050  1
  H  H7  1  0.04159341  0.85030234  0.73788799  1
  H  H8  1  0.52700468  0.36394996  0.07895878  1
  H  H9  1  0.97763075  0.49607984  0.81130510  1
  H  H10  1  0.12083792  0.50952589  0.89787043  1
  H  H11  1  0.34914580  0.60452483  0.57653455  1
  H  H12  1  0.56444103  0.09612482  0.40526413  1
  H  H13  1  0.34063461  0.23618543  0.64470526  1
  H  H14  1  0.87490861  0.64543905  0.39727583  1
