# generated using pymatgen
data_Sr2NbH8
_symmetry_space_group_name_H-M   'P 1'
_cell_length_a   3.70569684
_cell_length_b   5.79106194
_cell_length_c   7.17316257
_cell_angle_alpha   121.30332889
_cell_angle_beta   97.28525142
_cell_angle_gamma   96.69269874
_symmetry_Int_Tables_number   1
_chemical_formula_structural   Sr2NbH8
_chemical_formula_sum   'Sr2 Nb1 H8'
_cell_volume   127.40688379
_cell_formula_units_Z   1
loop_
 _symmetry_equiv_pos_site_id
 _symmetry_equiv_pos_as_xyz
  1  'x, y, z'
loop_
 _atom_site_type_symbol
 _atom_site_label
 _atom_site_symmetry_multiplicity
 _atom_site_fract_x
 _atom_site_fract_y
 _atom_site_fract_z
 _atom_site_occupancy
  Sr  Sr0  1  0.79740280  0.91190230  0.20015994  1
  Sr  Sr1  1  0.38185928  0.64183568  0.59453457  1
  Nb  Nb2  1  0.18217003  0.27995741  0.95574629  1
  H  H3  1  0.63996049  0.41242790  0.92402006  1
  H  H4  1  0.18500631  0.57785128  0.91256078  1
  H  H5  1  0.56851429  0.10393529  0.95158551  1
  H  H6  1  0.00451126  0.91362708  0.86545058  1
  H  H7  1  0.25108006  0.24083113  0.19485137  1
  H  H8  1  0.27894489  0.63089366  0.23316082  1
  H  H9  1  0.79900671  0.35352311  0.49117112  1
  H  H10  1  0.06578388  0.03422517  0.62591296  1
