# generated using pymatgen
data_Sr2NbH19
_symmetry_space_group_name_H-M   'P 1'
_cell_length_a   5.82938988
_cell_length_b   6.20211672
_cell_length_c   6.62298330
_cell_angle_alpha   83.00944253
_cell_angle_beta   72.56767793
_cell_angle_gamma   69.75001619
_symmetry_Int_Tables_number   1
_chemical_formula_structural   Sr2NbH19
_chemical_formula_sum   'Sr2 Nb1 H19'
_cell_volume   214.28959511
_cell_formula_units_Z   1
loop_
 _symmetry_equiv_pos_site_id
 _symmetry_equiv_pos_as_xyz
  1  'x, y, z'
loop_
 _atom_site_type_symbol
 _atom_site_label
 _atom_site_symmetry_multiplicity
 _atom_site_fract_x
 _atom_site_fract_y
 _atom_site_fract_z
 _atom_site_occupancy
  Sr  Sr0  1  0.21802133  0.23607850  0.87227025  1
  Sr  Sr1  1  0.30465437  0.62003662  0.28841411  1
  Nb  Nb2  1  0.64014370  0.58022051  0.73416837  1
  H  H3  1  0.50310344  0.07580724  0.47983184  1
  H  H4  1  0.60456360  0.74615697  0.48255307  1
  H  H5  1  0.42226424  0.19251110  0.45656564  1
  H  H6  1  0.10264298  0.02243605  0.48676761  1
  H  H7  1  0.02847664  0.95605311  0.56370365  1
  H  H8  1  0.90191205  0.97504254  0.14282804  1
  H  H9  1  0.73609198  0.34278767  0.53218058  1
  H  H10  1  0.91153362  0.05259856  0.21717060  1
  H  H11  1  0.82873747  0.41992570  0.45503537  1
  H  H12  1  0.43949323  0.04216682  0.17233523  1
  H  H13  1  0.46467453  0.43659167  0.94690412  1
  H  H14  1  0.72464708  0.59091206  0.98341184  1
  H  H15  1  0.81487084  0.29170977  0.80380336  1
  H  H16  1  0.13034930  0.34252840  0.22294867  1
  H  H17  1  0.68671614  0.85713348  0.73945796  1
  H  H18  1  -0.01069984  0.53853531  0.62469830  1
  H  H19  1  0.53625121  0.94633789  0.09852699  1
  H  H20  1  0.33441196  0.79420135  0.89153733  1
  H  H21  1  0.38112113  0.53737469  0.65459106  1
