# generated using pymatgen
data_Sr2NbH15
_symmetry_space_group_name_H-M   'P 1'
_cell_length_a   6.38061131
_cell_length_b   6.28612206
_cell_length_c   6.25860853
_cell_angle_alpha   120.94287500
_cell_angle_beta   121.55517377
_cell_angle_gamma   91.16235322
_symmetry_Int_Tables_number   1
_chemical_formula_structural   Sr2NbH15
_chemical_formula_sum   'Sr2 Nb1 H15'
_cell_volume   168.47429934
_cell_formula_units_Z   1
loop_
 _symmetry_equiv_pos_site_id
 _symmetry_equiv_pos_as_xyz
  1  'x, y, z'
loop_
 _atom_site_type_symbol
 _atom_site_label
 _atom_site_symmetry_multiplicity
 _atom_site_fract_x
 _atom_site_fract_y
 _atom_site_fract_z
 _atom_site_occupancy
  Sr  Sr0  1  0.99299779  0.96876776  0.54959626  1
  Sr  Sr1  1  0.47769400  0.43085298  0.53048894  1
  Nb  Nb2  1  0.22735079  0.69735834  0.02715317  1
  H  H3  1  0.92129888  0.40738434  0.79913041  1
  H  H4  1  0.92789048  0.68196624  0.70603497  1
  H  H5  1  0.98775442  0.12938688  0.02655338  1
  H  H6  1  0.99323309  0.24921420  0.02300695  1
  H  H7  1  0.13847629  0.42492262  0.63096997  1
  H  H8  1  0.20770778  0.68035408  0.30113475  1
  H  H9  1  0.53373427  0.97407324  0.44629506  1
  H  H10  1  0.65780644  0.42107666  0.07273583  1
  H  H11  1  0.77453318  0.40472427  0.07137750  1
  H  H12  1  0.35510625  0.44512316  0.07386620  1
  H  H13  1  0.59130418  0.95184264  0.91629899  1
  H  H14  1  0.52544003  0.72755070  0.04672562  1
  H  H15  1  0.58413409  0.94852970  0.79073303  1
  H  H16  1  0.32171885  0.98584121  0.03233730  1
  H  H17  1  0.10096919  0.94599999  0.20427267  1
