# generated using pymatgen
data_Sr2Nb4H15
_symmetry_space_group_name_H-M   'P 1'
_cell_length_a   3.46860175
_cell_length_b   6.89045247
_cell_length_c   7.95146979
_cell_angle_alpha   102.49553714
_cell_angle_beta   102.53693454
_cell_angle_gamma   90.02840719
_symmetry_Int_Tables_number   1
_chemical_formula_structural   Sr2Nb4H15
_chemical_formula_sum   'Sr2 Nb4 H15'
_cell_volume   180.89174312
_cell_formula_units_Z   1
loop_
 _symmetry_equiv_pos_site_id
 _symmetry_equiv_pos_as_xyz
  1  'x, y, z'
loop_
 _atom_site_type_symbol
 _atom_site_label
 _atom_site_symmetry_multiplicity
 _atom_site_fract_x
 _atom_site_fract_y
 _atom_site_fract_z
 _atom_site_occupancy
  Sr  Sr0  1  0.80439100  0.83906088  0.94361783  1
  Sr  Sr1  1  0.78884897  0.34096590  0.94355347  1
  Nb  Nb2  1  0.11717247  0.99664213  0.57032255  1
  Nb  Nb3  1  0.10345178  0.49760538  0.57413490  1
  Nb  Nb4  1  0.46637685  0.67883629  0.30210030  1
  Nb  Nb5  1  0.46499554  0.18026559  0.30128408  1
  H  H6  1  0.03993623  0.70964719  0.44608337  1
  H  H7  1  0.03935317  0.22170634  0.44573464  1
  H  H8  1  0.18850085  0.78347700  0.71727548  1
  H  H9  1  0.17928870  0.28320095  0.71697421  1
  H  H10  1  0.90544138  0.15973687  0.18167044  1
  H  H11  1  0.10298734  0.93584648  0.32585383  1
  H  H12  1  0.90657689  0.63948836  0.18246005  1
  H  H13  1  0.40192515  0.39967673  0.18176806  1
  H  H14  1  0.47478412  0.89970221  0.18258224  1
  H  H15  1  0.53807266  0.46479642  0.44370475  1
  H  H16  1  0.57789843  0.96762076  0.45329919  1
  H  H17  1  0.33877672  0.61501629  0.04186569  1
  H  H18  1  0.33760456  0.11394248  0.04092270  1
  H  H19  1  0.69553246  0.03338572  0.71857095  1
  H  H20  1  0.67547571  0.53309603  0.71452927  1
