# generated using pymatgen
data_SrNbH15
_symmetry_space_group_name_H-M   'P 1'
_cell_length_a   3.82445785
_cell_length_b   5.41704906
_cell_length_c   7.41748718
_cell_angle_alpha   93.95857168
_cell_angle_beta   89.11725461
_cell_angle_gamma   94.50397915
_symmetry_Int_Tables_number   1
_chemical_formula_structural   SrNbH15
_chemical_formula_sum   'Sr1 Nb1 H15'
_cell_volume   152.82238378
_cell_formula_units_Z   1
loop_
 _symmetry_equiv_pos_site_id
 _symmetry_equiv_pos_as_xyz
  1  'x, y, z'
loop_
 _atom_site_type_symbol
 _atom_site_label
 _atom_site_symmetry_multiplicity
 _atom_site_fract_x
 _atom_site_fract_y
 _atom_site_fract_z
 _atom_site_occupancy
  Sr  Sr0  1  0.12489161  0.10966449  0.80659172  1
  Nb  Nb1  1  0.51076815  0.62355396  0.53292918  1
  H  H2  1  0.91634620  0.61573275  0.98896921  1
  H  H3  1  0.06010551  0.64716390  0.05720952  1
  H  H4  1  0.14487772  0.34826501  0.47532521  1
  H  H5  1  0.62414860  0.14191277  -0.01903337  1
  H  H6  1  0.66269805  0.40542036  0.68352712  1
  H  H7  1  0.54196205  0.64876032  0.25380934  1
  H  H8  1  0.52432277  0.79049174  0.28662921  1
  H  H9  1  0.56046899  0.95805916  0.53373542  1
  H  H10  1  0.65504061  0.75993162  0.74724390  1
  H  H11  1  0.33330051  0.29267590  0.44246295  1
  H  H12  1  0.23597124  0.55998821  0.71864716  1
  H  H13  1  0.70369893  0.39037855  0.39493079  1
  H  H14  1  0.03501540  0.73337533  0.49843490  1
  H  H15  1  0.02210121  0.09828614  0.17376437  1
  H  H16  1  0.22294646  0.09956480  0.16736338  1
