# generated using pymatgen
data_SrNbH9
_symmetry_space_group_name_H-M   'P 1'
_cell_length_a   3.41917545
_cell_length_b   3.39066247
_cell_length_c   7.65180864
_cell_angle_alpha   102.85375344
_cell_angle_beta   89.94967087
_cell_angle_gamma   89.99304946
_symmetry_Int_Tables_number   1
_chemical_formula_structural   SrNbH9
_chemical_formula_sum   'Sr1 Nb1 H9'
_cell_volume   86.48648051
_cell_formula_units_Z   1
loop_
 _symmetry_equiv_pos_site_id
 _symmetry_equiv_pos_as_xyz
  1  'x, y, z'
loop_
 _atom_site_type_symbol
 _atom_site_label
 _atom_site_symmetry_multiplicity
 _atom_site_fract_x
 _atom_site_fract_y
 _atom_site_fract_z
 _atom_site_occupancy
  Sr  Sr0  1  0.20884504  0.27587080  0.23747630  1
  Nb  Nb1  1  0.70841594  0.56855042  0.81953401  1
  H  H2  1  0.70391861  0.13733843  0.95943339  1
  H  H3  1  0.71260103  0.00330467  0.69151870  1
  H  H4  1  0.10078642  0.89955262  0.48262146  1
  H  H5  1  0.32859789  0.89831210  0.48024971  1
  H  H6  1  0.70953293  0.44004446  0.56320825  1
  H  H7  1  0.20686594  0.63685330  0.95976874  1
  H  H8  1  0.70710769  0.69377525  0.07114484  1
  H  H9  1  0.71099864  0.81154342  0.31008371  1
  H  H10  1  0.20791088  0.50603952  0.69236288  1
