# generated using pymatgen
data_SrNbH8
_symmetry_space_group_name_H-M   'P 1'
_cell_length_a   4.52908225
_cell_length_b   6.46998681
_cell_length_c   7.68822909
_cell_angle_alpha   68.09982789
_cell_angle_beta   73.01050358
_cell_angle_gamma   69.32876085
_symmetry_Int_Tables_number   1
_chemical_formula_structural   SrNbH8
_chemical_formula_sum   'Sr2 Nb2 H16'
_cell_volume   192.20096194
_cell_formula_units_Z   2
loop_
 _symmetry_equiv_pos_site_id
 _symmetry_equiv_pos_as_xyz
  1  'x, y, z'
loop_
 _atom_site_type_symbol
 _atom_site_label
 _atom_site_symmetry_multiplicity
 _atom_site_fract_x
 _atom_site_fract_y
 _atom_site_fract_z
 _atom_site_occupancy
  Sr  Sr0  1  0.33162374  0.67631350  0.82500997  1
  Sr  Sr1  1  0.86781540  0.04874462  0.36137773  1
  Nb  Nb2  1  0.65220978  0.66069553  0.22405836  1
  Nb  Nb3  1  0.12067588  0.31698183  0.62092963  1
  H  H4  1  0.51237768  0.97782550  0.13475611  1
  H  H5  1  0.72682861  0.76555545  0.96320241  1
  H  H6  1  0.59610760  0.46244053  0.13097626  1
  H  H7  1  0.44485264  0.79392011  0.42041207  1
  H  H8  1  0.01760934  0.45131465  0.15264229  1
  H  H9  1  0.89943566  0.54658635  0.41287120  1
  H  H10  1  0.37172350  0.31539928  0.75961999  1
  H  H11  1  0.14277434  0.18919989  0.88629316  1
  H  H12  1  0.95957105  0.61670912  0.65939467  1
  H  H13  1  0.45406269  0.05691604  0.67357492  1
  H  H14  1  0.26488599  0.18220162  0.43344124  1
  H  H15  1  0.71248347  0.35186484  0.72979855  1
  H  H16  1  0.97501299  0.15521126  0.88341634  1
  H  H17  1  0.95882892  0.07647704  0.67461717  1
  H  H18  1  0.04453685  0.76549876  0.15834381  1
  H  H19  1  0.48436887  0.43033408  0.42517012  1
