# generated using pymatgen
data_SrNb2H9
_symmetry_space_group_name_H-M   'P 1'
_cell_length_a   3.55575559
_cell_length_b   7.03126621
_cell_length_c   8.18329091
_cell_angle_alpha   77.44264303
_cell_angle_beta   89.33564443
_cell_angle_gamma   90.33816371
_symmetry_Int_Tables_number   1
_chemical_formula_structural   SrNb2H9
_chemical_formula_sum   'Sr2 Nb4 H18'
_cell_volume   199.67926280
_cell_formula_units_Z   2
loop_
 _symmetry_equiv_pos_site_id
 _symmetry_equiv_pos_as_xyz
  1  'x, y, z'
loop_
 _atom_site_type_symbol
 _atom_site_label
 _atom_site_symmetry_multiplicity
 _atom_site_fract_x
 _atom_site_fract_y
 _atom_site_fract_z
 _atom_site_occupancy
  Sr  Sr0  1  0.41966986  0.82083755  0.14010781  1
  Sr  Sr1  1  0.97818843  0.28908965  0.26897239  1
  Nb  Nb2  1  0.92199389  0.63143479  0.84961559  1
  Nb  Nb3  1  0.94038777  0.15538955  0.84852861  1
  Nb  Nb4  1  0.45938650  0.96075851  0.60288825  1
  Nb  Nb5  1  0.45629090  0.46451806  0.58649588  1
  H  H6  1  0.95008223  0.42242078  0.72202530  1
  H  H7  1  0.89864948  0.36100060  0.97216527  1
  H  H8  1  0.90752078  0.61857478  0.08484655  1
  H  H9  1  0.37173562  0.73990556  0.48499605  1
  H  H10  1  0.37567552  0.68451686  0.72707570  1
  H  H11  1  0.79418406  0.72549335  0.61034691  1
  H  H12  1  0.88618733  0.91426153  0.77489374  1
  H  H13  1  0.47027961  0.50968319  0.34778797  1
  H  H14  1  0.47379309  0.23933163  0.48605896  1
  H  H15  1  0.46190523  0.02907809  0.35815397  1
  H  H16  1  0.91021321  0.85342206  0.32768186  1
  H  H17  1  0.91229918  0.74200955  0.34546704  1
  H  H18  1  0.92771944  0.05601390  0.08143347  1
  H  H19  1  0.95836076  0.01604230  0.50443018  1
  H  H20  1  0.43201470  0.15085224  0.95960398  1
  H  H21  1  0.43875343  0.18259677  0.72158143  1
  H  H22  1  0.39515011  0.56673598  0.96462878  1
  H  H23  1  0.96293189  0.48562173  0.48037730  1
