# generated using pymatgen
data_Sr3Nb2H13
_symmetry_space_group_name_H-M   'P 1'
_cell_length_a   3.57122163
_cell_length_b   7.97825443
_cell_length_c   7.32254649
_cell_angle_alpha   86.85418540
_cell_angle_beta   89.02518896
_cell_angle_gamma   101.12096759
_symmetry_Int_Tables_number   1
_chemical_formula_structural   Sr3Nb2H13
_chemical_formula_sum   'Sr3 Nb2 H13'
_cell_volume   204.32752394
_cell_formula_units_Z   1
loop_
 _symmetry_equiv_pos_site_id
 _symmetry_equiv_pos_as_xyz
  1  'x, y, z'
loop_
 _atom_site_type_symbol
 _atom_site_label
 _atom_site_symmetry_multiplicity
 _atom_site_fract_x
 _atom_site_fract_y
 _atom_site_fract_z
 _atom_site_occupancy
  Sr  Sr0  1  0.21385505  0.17903235  0.84862180  1
  Sr  Sr1  1  0.18652241  0.16395638  0.33759918  1
  Sr  Sr2  1  0.89065574  0.60649195  0.06904026  1
  Nb  Nb3  1  0.54822830  0.80701603  0.63766947  1
  Nb  Nb4  1  0.82995781  0.49509035  0.56976944  1
  H  H5  1  0.76348902  0.70155608  0.42384527  1
  H  H6  1  0.30723851  0.43422083  0.47704755  1
  H  H7  1  0.72085976  0.25322844  0.58205179  1
  H  H8  1  0.36528924  0.56066163  0.70038528  1
  H  H9  1  0.58209141  0.95140712  0.41661078  1
  H  H10  1  0.30288375  0.40050785  0.08014979  1
  H  H11  1  0.79836065  0.40509691  0.33654722  1
  H  H12  1  0.67911027  0.12275250  0.09684181  1
  H  H13  1  0.07928822  0.93230434  0.59664240  1
  H  H14  1  0.81401209  0.40399880  0.81456057  1
  H  H15  1  0.95649338  0.70234308  0.72582927  1
  H  H16  1  0.64473617  0.00398864  0.76407876  1
  H  H17  1  0.46301122  0.77362672  0.90409734  1
