# generated using pymatgen
data_Sr(NbH9)2
_symmetry_space_group_name_H-M   'P 1'
_cell_length_a   5.66561747
_cell_length_b   5.41941661
_cell_length_c   7.69942205
_cell_angle_alpha   78.43560715
_cell_angle_beta   110.79674931
_cell_angle_gamma   120.64685414
_symmetry_Int_Tables_number   1
_chemical_formula_structural   Sr(NbH9)2
_chemical_formula_sum   'Sr1 Nb2 H18'
_cell_volume   190.07860239
_cell_formula_units_Z   1
loop_
 _symmetry_equiv_pos_site_id
 _symmetry_equiv_pos_as_xyz
  1  'x, y, z'
loop_
 _atom_site_type_symbol
 _atom_site_label
 _atom_site_symmetry_multiplicity
 _atom_site_fract_x
 _atom_site_fract_y
 _atom_site_fract_z
 _atom_site_occupancy
  Sr  Sr0  1  0.60040944  0.29697975  0.42628316  1
  Nb  Nb1  1  0.10650006  0.61046664  0.13152821  1
  Nb  Nb2  1  0.09321627  0.91495896  0.77019818  1
  H  H3  1  0.81828381  0.21287976  0.10295089  1
  H  H4  1  0.96336374  0.20854992  0.10468021  1
  H  H5  1  0.36432507  0.86933838  0.99003816  1
  H  H6  1  0.32584582  0.44728427  0.14761976  1
  H  H7  1  0.94216369  0.54180783  0.86266723  1
  H  H8  1  0.46038707  0.80169440  0.29224649  1
  H  H9  1  0.10529215  0.81567992  0.28809392  1
  H  H10  1  0.74356583  0.46811266  0.14354107  1
  H  H11  1  0.12100257  0.43221822  0.36292450  1
  H  H12  1  0.25997804  0.33676560  0.80914652  1
  H  H13  1  0.40181675  0.32995759  0.81432738  1
  H  H14  1  0.42814314  0.04412430  0.72022823  1
  H  H15  1  0.86728848  0.08433389  0.70389916  1
  H  H16  1  0.10149852  0.68103717  0.64018626  1
  H  H17  1  0.72694949  0.69333643  0.63952340  1
  H  H18  1  0.03717437  0.07116753  0.51146586  1
  H  H19  1  0.02642921  0.91475098  0.50582044  1
  H  H20  1  0.99671647  0.89037278  0.98950097  1
