# generated using pymatgen
data_SrNbH15
_symmetry_space_group_name_H-M   'P 1'
_cell_length_a   4.03535100
_cell_length_b   6.28343776
_cell_length_c   7.03149390
_cell_angle_alpha   77.55330201
_cell_angle_beta   85.86871372
_cell_angle_gamma   65.76810191
_symmetry_Int_Tables_number   1
_chemical_formula_structural   SrNbH15
_chemical_formula_sum   'Sr1 Nb1 H15'
_cell_volume   158.73276407
_cell_formula_units_Z   1
loop_
 _symmetry_equiv_pos_site_id
 _symmetry_equiv_pos_as_xyz
  1  'x, y, z'
loop_
 _atom_site_type_symbol
 _atom_site_label
 _atom_site_symmetry_multiplicity
 _atom_site_fract_x
 _atom_site_fract_y
 _atom_site_fract_z
 _atom_site_occupancy
  Sr  Sr0  1  0.21400479  0.45033314  0.45537423  1
  Nb  Nb1  1  0.42681309  0.94267832  0.31464933  1
  H  H2  1  0.54892665  0.69373676  0.53656237  1
  H  H3  1  0.61308175  0.00825217  0.50448413  1
  H  H4  1  0.14587666  0.03969605  0.51427806  1
  H  H5  1  0.04899232  0.22632019  0.23767420  1
  H  H6  1  0.53127160  0.19835579  0.22779960  1
  H  H7  1  0.60864563  0.64493879  0.24469344  1
  H  H8  1  0.95813369  0.86450369  0.28118630  1
  H  H9  1  0.03534428  0.68682760  0.86608235  1
  H  H10  1  0.07807645  0.75635426  0.77370544  1
  H  H11  1  0.72041759  0.23447032  0.78679969  1
  H  H12  1  0.73342706  0.43517753  0.99083558  1
  H  H13  1  0.66087141  0.52295872  0.89659728  1
  H  H14  1  0.45406830  0.93171963  0.01901961  1
  H  H15  1  0.79789443  0.15385222  0.71431966  1
  H  H16  1  0.35209529  0.06989080  0.01811972  1
