# generated using pymatgen
data_SrNbH7
_symmetry_space_group_name_H-M   'P 1'
_cell_length_a   3.55532741
_cell_length_b   5.40757953
_cell_length_c   9.17288823
_cell_angle_alpha   98.67392361
_cell_angle_beta   90.25337500
_cell_angle_gamma   89.95170355
_symmetry_Int_Tables_number   1
_chemical_formula_structural   SrNbH7
_chemical_formula_sum   'Sr2 Nb2 H14'
_cell_volume   174.33659201
_cell_formula_units_Z   2
loop_
 _symmetry_equiv_pos_site_id
 _symmetry_equiv_pos_as_xyz
  1  'x, y, z'
loop_
 _atom_site_type_symbol
 _atom_site_label
 _atom_site_symmetry_multiplicity
 _atom_site_fract_x
 _atom_site_fract_y
 _atom_site_fract_z
 _atom_site_occupancy
  Sr  Sr0  1  0.66777824  0.63648676  0.46448177  1
  Sr  Sr1  1  0.66898063  0.80081692  0.88887784  1
  Nb  Nb2  1  0.13225278  0.38403972  0.11762602  1
  Nb  Nb3  1  0.16617425  0.22116997  0.68883743  1
  H  H4  1  0.24453327  0.09418042  0.21168096  1
  H  H5  1  0.15976459  0.01582871  0.13302659  1
  H  H6  1  0.83309413  0.32540589  0.25906032  1
  H  H7  1  0.69860960  0.57085181  0.12693353  1
  H  H8  1  0.17175828  0.68544126  0.04554057  1
  H  H9  1  0.31992572  0.32808817  0.28803799  1
  H  H10  1  0.70652772  0.21346287  0.05397233  1
  H  H11  1  0.66648901  0.40380894  0.70633153  1
  H  H12  1  0.18007809  0.15300187  0.90075927  1
  H  H13  1  0.66635838  0.07636212  0.60398902  1
  H  H14  1  0.14982418  0.65312079  0.26886089  1
  H  H15  1  0.16586653  0.87262140  0.68468267  1
  H  H16  1  0.16860137  0.37158118  0.51750779  1
  H  H17  1  0.16778023  0.50304022  0.82585047  1
