# generated using pymatgen
data_SrNbH20
_symmetry_space_group_name_H-M   'P 1'
_cell_length_a   6.25069746
_cell_length_b   6.00784755
_cell_length_c   6.13133546
_cell_angle_alpha   80.00746169
_cell_angle_beta   83.85272946
_cell_angle_gamma   66.17725159
_symmetry_Int_Tables_number   1
_chemical_formula_structural   SrNbH20
_chemical_formula_sum   'Sr1 Nb1 H20'
_cell_volume   207.26368700
_cell_formula_units_Z   1
loop_
 _symmetry_equiv_pos_site_id
 _symmetry_equiv_pos_as_xyz
  1  'x, y, z'
loop_
 _atom_site_type_symbol
 _atom_site_label
 _atom_site_symmetry_multiplicity
 _atom_site_fract_x
 _atom_site_fract_y
 _atom_site_fract_z
 _atom_site_occupancy
  Sr  Sr0  1  0.25565735  0.22447032  0.67588792  1
  Nb  Nb1  1  0.62340653  0.60543361  0.77778009  1
  H  H2  1  0.95868719  0.94395375  0.54106727  1
  H  H3  1  0.07601282  0.92394764  0.48284047  1
  H  H4  1  0.27940468  0.04664705  0.13427789  1
  H  H5  1  0.19931120  0.17991548  0.13631266  1
  H  H6  1  0.88773704  0.87264218  0.05458940  1
  H  H7  1  0.91258162  0.92586064  0.14626715  1
  H  H8  1  0.57875205  0.23761560  0.32417161  1
  H  H9  1  0.59780774  0.10268352  0.34879166  1
  H  H10  1  0.73498689  0.24008492  0.88416104  1
  H  H11  1  0.74569434  0.25275480  0.74929280  1
  H  H12  1  0.23057094  0.50437749  0.24279643  1
  H  H13  1  0.10774206  0.53668396  0.29525580  1
  H  H14  1  0.83721982  0.52206659  0.53955560  1
  H  H15  1  0.66863884  0.59527622  0.10493099  1
  H  H16  1  0.52790702  0.65190746  0.10006468  1
  H  H17  1  0.49610699  0.81968137  0.53376156  1
  H  H18  1  0.46609102  0.49587445  0.61558422  1
  H  H19  1  0.91639566  0.49807769  0.89305458  1
  H  H20  1  0.31635225  0.79046053  0.85488029  1
  H  H21  1  0.63812394  0.90386472  0.78805688  1
