# generated using pymatgen
data_SrNb5H14
_symmetry_space_group_name_H-M   'P 1'
_cell_length_a   4.95818494
_cell_length_b   5.78300009
_cell_length_c   6.30136044
_cell_angle_alpha   89.19340948
_cell_angle_beta   89.73752020
_cell_angle_gamma   90.61470554
_symmetry_Int_Tables_number   1
_chemical_formula_structural   SrNb5H14
_chemical_formula_sum   'Sr1 Nb5 H14'
_cell_volume   180.64974297
_cell_formula_units_Z   1
loop_
 _symmetry_equiv_pos_site_id
 _symmetry_equiv_pos_as_xyz
  1  'x, y, z'
loop_
 _atom_site_type_symbol
 _atom_site_label
 _atom_site_symmetry_multiplicity
 _atom_site_fract_x
 _atom_site_fract_y
 _atom_site_fract_z
 _atom_site_occupancy
  Sr  Sr0  1  0.41885649  0.20298976  0.88273186  1
  Nb  Nb1  1  0.91117475  0.20700489  0.37455660  1
  Nb  Nb2  1  0.41107309  0.46075629  0.38148410  1
  Nb  Nb3  1  0.41757153  0.94445889  0.37144450  1
  Nb  Nb4  1  0.92584831  0.71103540  0.11815297  1
  Nb  Nb5  1  0.91469417  0.70745793  0.63514013  1
  H  H6  1  0.68788043  0.42179818  0.60444965  1
  H  H7  1  0.70741976  0.00693636  0.15622389  1
  H  H8  1  0.11990837  0.01181697  0.17028297  1
  H  H9  1  0.69251638  0.41437713  0.16041486  1
  H  H10  1  0.32630542  0.70407979  0.15530176  1
  H  H11  1  0.30510357  0.72695205  0.60052184  1
  H  H12  1  0.25162148  0.17210328  0.53424290  1
  H  H13  1  0.11911798  0.40691807  0.16780575  1
  H  H14  1  0.71471289  0.00797277  0.59215165  1
  H  H15  1  0.07752473  0.87541754  0.86926305  1
  H  H16  1  0.99051148  0.50734756  0.87757657  1
  H  H17  1  0.09586891  0.42352122  0.58584031  1
  H  H18  1  0.67045784  0.75321141  0.87883074  1
  H  H19  1  0.69149442  0.70362251  0.37518390  1
