# generated using pymatgen
data_SrNbH11
_symmetry_space_group_name_H-M   'P 1'
_cell_length_a   5.06972906
_cell_length_b   5.33638146
_cell_length_c   5.40184468
_cell_angle_alpha   114.81900877
_cell_angle_beta   88.62887070
_cell_angle_gamma   112.77802760
_symmetry_Int_Tables_number   1
_chemical_formula_structural   SrNbH11
_chemical_formula_sum   'Sr1 Nb1 H11'
_cell_volume   120.61039717
_cell_formula_units_Z   1
loop_
 _symmetry_equiv_pos_site_id
 _symmetry_equiv_pos_as_xyz
  1  'x, y, z'
loop_
 _atom_site_type_symbol
 _atom_site_label
 _atom_site_symmetry_multiplicity
 _atom_site_fract_x
 _atom_site_fract_y
 _atom_site_fract_z
 _atom_site_occupancy
  Sr  Sr0  1  0.30006197  0.90342220  0.84965597  1
  Nb  Nb1  1  0.68931599  0.69488703  0.24577697  1
  H  H2  1  0.75088876  0.38676668  0.31874849  1
  H  H3  1  0.91337718  0.49266160  0.30266368  1
  H  H4  1  0.04849210  0.73848981  0.17880418  1
  H  H5  1  0.69499711  0.38979136  0.91825087  1
  H  H6  1  0.91804314  0.11324572  0.54149022  1
  H  H7  1  0.01574756  0.11023738  0.41950798  1
  H  H8  1  0.37995874  0.38965433  0.28272668  1
  H  H9  1  0.70431963  0.78638211  0.61462654  1
  H  H10  1  0.49518269  0.94351864  0.37519989  1
  H  H11  1  0.37741551  0.52656967  0.98275994  1
  H  H12  1  0.77360963  0.90435247  0.03793058  1
