# generated using pymatgen
data_Sr3Nb2H15
_symmetry_space_group_name_H-M   'P 1'
_cell_length_a   6.68920500
_cell_length_b   7.22731699
_cell_length_c   5.55942298
_cell_angle_alpha   87.42440376
_cell_angle_beta   66.57042985
_cell_angle_gamma   60.76013795
_symmetry_Int_Tables_number   1
_chemical_formula_structural   Sr3Nb2H15
_chemical_formula_sum   'Sr3 Nb2 H15'
_cell_volume   211.41377048
_cell_formula_units_Z   1
loop_
 _symmetry_equiv_pos_site_id
 _symmetry_equiv_pos_as_xyz
  1  'x, y, z'
loop_
 _atom_site_type_symbol
 _atom_site_label
 _atom_site_symmetry_multiplicity
 _atom_site_fract_x
 _atom_site_fract_y
 _atom_site_fract_z
 _atom_site_occupancy
  Sr  Sr0  1  0.20404365  0.21621026  0.70716491  1
  Sr  Sr1  1  0.61188295  0.52188575  0.48367680  1
  Sr  Sr2  1  0.79813580  0.91060973  0.93021726  1
  Nb  Nb3  1  0.24836236  0.47146783  0.14425925  1
  Nb  Nb4  1  0.16176019  0.96102935  0.26880944  1
  H  H5  1  0.93849287  0.56651036  0.12144258  1
  H  H6  1  0.99475151  0.53948283  0.51075701  1
  H  H7  1  0.47034578  0.29748380  0.29648483  1
  H  H8  1  0.86458661  0.95576891  0.45773476  1
  H  H9  1  0.13315495  0.76923749  0.07988488  1
  H  H10  1  0.15961603  0.90944747  0.59731107  1
  H  H11  1  0.46930568  0.87016899  0.29532918  1
  H  H12  1  0.91876431  0.19089919  0.53654377  1
  H  H13  1  0.20002710  0.21866633  0.20546533  1
  H  H14  1  0.48969371  0.24042120  0.87763082  1
  H  H15  1  0.28107533  0.66187228  0.32978320  1
  H  H16  1  0.41616386  0.89237639  0.90245913  1
  H  H17  1  0.54821380  0.47300602  0.95470731  1
  H  H18  1  0.25021753  0.52169730  0.81547425  1
  H  H19  1  0.93831200  0.13310552  0.11733823  1
