# generated using pymatgen
data_Sr2NbH11
_symmetry_space_group_name_H-M   'P 1'
_cell_length_a   6.91622149
_cell_length_b   5.21024528
_cell_length_c   6.55695736
_cell_angle_alpha   48.96448859
_cell_angle_beta   57.58147166
_cell_angle_gamma   66.02001084
_symmetry_Int_Tables_number   1
_chemical_formula_structural   Sr2NbH11
_chemical_formula_sum   'Sr2 Nb1 H11'
_cell_volume   149.90054834
_cell_formula_units_Z   1
loop_
 _symmetry_equiv_pos_site_id
 _symmetry_equiv_pos_as_xyz
  1  'x, y, z'
loop_
 _atom_site_type_symbol
 _atom_site_label
 _atom_site_symmetry_multiplicity
 _atom_site_fract_x
 _atom_site_fract_y
 _atom_site_fract_z
 _atom_site_occupancy
  Sr  Sr0  1  0.78106010  0.38311571  0.75615603  1
  Sr  Sr1  1  0.43301119  0.39619441  0.45739799  1
  Nb  Nb2  1  0.12555399  0.57922560  0.02189470  1
  H  H3  1  0.26413582  0.09149704  0.12950346  1
  H  H4  1  0.14467925  0.06073665  0.26867516  1
  H  H5  1  0.86100241  0.80597218  0.15760483  1
  H  H6  1  0.18915899  0.96214135  0.91226363  1
  H  H7  1  0.06854379  0.94889448  0.70922789  1
  H  H8  1  0.06284928  0.48381368  0.82926778  1
  H  H9  1  0.87616242  0.30504749  0.31420984  1
  H  H10  1  0.39344007  0.45785944  0.07122759  1
  H  H11  1  0.60213795  0.94111848  0.86588685  1
  H  H12  1  0.39162348  0.68995972  0.66476301  1
  H  H13  1  0.10243627  0.52532575  0.34213423  1
