# generated using pymatgen
data_Sr2NbH9
_symmetry_space_group_name_H-M   'P 1'
_cell_length_a   6.20316478
_cell_length_b   5.50693292
_cell_length_c   5.50679574
_cell_angle_alpha   119.86625246
_cell_angle_beta   116.33474580
_cell_angle_gamma   90.12241547
_symmetry_Int_Tables_number   1
_chemical_formula_structural   Sr2NbH9
_chemical_formula_sum   'Sr2 Nb1 H9'
_cell_volume   140.05067702
_cell_formula_units_Z   1
loop_
 _symmetry_equiv_pos_site_id
 _symmetry_equiv_pos_as_xyz
  1  'x, y, z'
loop_
 _atom_site_type_symbol
 _atom_site_label
 _atom_site_symmetry_multiplicity
 _atom_site_fract_x
 _atom_site_fract_y
 _atom_site_fract_z
 _atom_site_occupancy
  Sr  Sr0  1  0.27501971  0.71435248  0.70596001  1
  Sr  Sr1  1  0.59179587  0.48592137  0.25063521  1
  Nb  Nb2  1  0.95320060  0.94004998  0.15757490  1
  H  H3  1  0.21483865  0.74281603  0.22287655  1
  H  H4  1  0.21286603  0.13564495  0.15221541  1
  H  H5  1  0.21380701  0.20291276  0.61646628  1
  H  H6  1  0.93839857  0.81883974  0.40053715  1
  H  H7  1  0.69286611  0.94620447  0.81237578  1
  H  H8  1  0.93806616  0.67995615  0.77904659  1
  H  H9  1  0.69281220  0.02347703  0.24813607  1
  H  H10  1  0.93852275  0.30345206  0.26187903  1
  H  H11  1  0.69176834  0.58957799  0.89103302  1
