# generated using pymatgen
data_Sr5NbH15
_symmetry_space_group_name_H-M   'P 1'
_cell_length_a   6.53555757
_cell_length_b   6.95214329
_cell_length_c   7.02659510
_cell_angle_alpha   67.68513727
_cell_angle_beta   75.03393045
_cell_angle_gamma   63.20341350
_symmetry_Int_Tables_number   1
_chemical_formula_structural   Sr5NbH15
_chemical_formula_sum   'Sr5 Nb1 H15'
_cell_volume   262.16548817
_cell_formula_units_Z   1
loop_
 _symmetry_equiv_pos_site_id
 _symmetry_equiv_pos_as_xyz
  1  'x, y, z'
loop_
 _atom_site_type_symbol
 _atom_site_label
 _atom_site_symmetry_multiplicity
 _atom_site_fract_x
 _atom_site_fract_y
 _atom_site_fract_z
 _atom_site_occupancy
  Sr  Sr0  1  0.25314553  0.61723429  0.64423089  1
  Sr  Sr1  1  0.26782200  0.14392958  0.17988878  1
  Sr  Sr2  1  0.91215106  0.82194295  0.12086318  1
  Sr  Sr3  1  0.59843015  0.51652402  0.13312117  1
  Sr  Sr4  1  0.61740092  0.94883687  0.62776273  1
  Nb  Nb5  1  0.92405871  0.29217863  0.61954302  1
  H  H6  1  0.28157367  0.52640068  0.01182792  1
  H  H7  1  0.97391631  0.06956327  0.49959499  1
  H  H8  1  0.13227540  0.00873948  0.74995067  1
  H  H9  1  0.51508353  0.81029270  0.40062319  1
  H  H10  1  0.89300077  0.66855009  0.88653608  1
  H  H11  1  0.03638272  0.28931396  0.84554394  1
  H  H12  1  0.67428935  0.48640282  0.75229135  1
  H  H13  1  0.93398369  0.58126379  0.53817747  1
  H  H14  1  0.64523365  0.34708939  0.53230529  1
  H  H15  1  0.22380387  0.77978342  0.26862597  1
  H  H16  1  0.92722327  0.42155037  0.33136715  1
  H  H17  1  0.63239907  0.13411550  0.25010345  1
  H  H18  1  0.76019736  0.13750347  0.81871833  1
  H  H19  1  0.22973489  0.26986136  0.50460961  1
  H  H20  1  0.52624606  0.91128636  0.98365181  1
