# generated using pymatgen
data_SrNb2H9
_symmetry_space_group_name_H-M   'P 1'
_cell_length_a   3.38760136
_cell_length_b   5.10663161
_cell_length_c   7.19398589
_cell_angle_alpha   110.41187736
_cell_angle_beta   77.76834868
_cell_angle_gamma   88.06645751
_symmetry_Int_Tables_number   1
_chemical_formula_structural   SrNb2H9
_chemical_formula_sum   'Sr1 Nb2 H9'
_cell_volume   113.19864900
_cell_formula_units_Z   1
loop_
 _symmetry_equiv_pos_site_id
 _symmetry_equiv_pos_as_xyz
  1  'x, y, z'
loop_
 _atom_site_type_symbol
 _atom_site_label
 _atom_site_symmetry_multiplicity
 _atom_site_fract_x
 _atom_site_fract_y
 _atom_site_fract_z
 _atom_site_occupancy
  Sr  Sr0  1  0.47986190  0.32661320  0.04529856  1
  Nb  Nb1  1  0.71570427  0.72733903  0.53929404  1
  Nb  Nb2  1  0.20244698  0.24523180  0.56387586  1
  H  H3  1  0.87452709  0.60397869  0.23481982  1
  H  H4  1  0.97048749  0.96911103  0.12731541  1
  H  H5  1  0.16579275  0.65325999  0.66347378  1
  H  H6  1  0.05358189  0.91145833  0.01075695  1
  H  H7  1  0.58679091  0.84872246  0.82710250  1
  H  H8  1  0.06933951  0.41171404  0.83872656  1
  H  H9  1  0.66130110  0.14052773  0.66805739  1
  H  H10  1  0.26864814  0.83359820  0.41417941  1
  H  H11  1  0.76187698  0.30613750  0.41588772  1
