# generated using pymatgen
data_Sr5NbH14
_symmetry_space_group_name_H-M   'P 1'
_cell_length_a   5.82741964
_cell_length_b   6.85029434
_cell_length_c   7.35765480
_cell_angle_alpha   88.16226861
_cell_angle_beta   87.62049110
_cell_angle_gamma   66.09397191
_symmetry_Int_Tables_number   1
_chemical_formula_structural   Sr5NbH14
_chemical_formula_sum   'Sr5 Nb1 H14'
_cell_volume   268.24794711
_cell_formula_units_Z   1
loop_
 _symmetry_equiv_pos_site_id
 _symmetry_equiv_pos_as_xyz
  1  'x, y, z'
loop_
 _atom_site_type_symbol
 _atom_site_label
 _atom_site_symmetry_multiplicity
 _atom_site_fract_x
 _atom_site_fract_y
 _atom_site_fract_z
 _atom_site_occupancy
  Sr  Sr0  1  0.45929745  0.06830428  0.71260403  1
  Sr  Sr1  1  0.13066737  0.69422332  0.62343786  1
  Sr  Sr2  1  0.87645961  0.25554047  0.41093621  1
  Sr  Sr3  1  0.80382398  0.41703916  0.89710549  1
  Sr  Sr4  1  0.56159961  0.85946129  0.22396312  1
  Nb  Nb5  1  0.29615649  0.44843846  0.13722137  1
  H  H6  1  0.60314836  0.20896890  0.09580952  1
  H  H7  1  0.20814606  0.20739112  0.10938347  1
  H  H8  1  0.36772732  0.31649414  0.37240453  1
  H  H9  1  0.26654917  0.40860996  0.88906773  1
  H  H10  1  0.56156931  0.50297533  0.21260964  1
  H  H11  1  0.95381378  0.52461888  0.20000483  1
  H  H12  1  0.74513818  0.78408248  0.89395768  1
  H  H13  1  0.59790311  0.57502882  0.60194853  1
  H  H14  1  0.26489817  0.95870956  0.47949315  1
  H  H15  1  0.34343830  0.66169902  0.98216826  1
  H  H16  1  0.88407219  0.09472363  0.72565563  1
  H  H17  1  0.76263493  0.94379045  0.46646311  1
  H  H18  1  0.07492568  0.36551363  0.63799984  1
  H  H19  1  0.17940096  0.70166009  0.26670699  1
