# generated using pymatgen
data_SrNbH6
_symmetry_space_group_name_H-M   'P 1'
_cell_length_a   3.62586312
_cell_length_b   3.63440431
_cell_length_c   7.31348678
_cell_angle_alpha   60.00914574
_cell_angle_beta   75.46837591
_cell_angle_gamma   60.15585577
_symmetry_Int_Tables_number   1
_chemical_formula_structural   SrNbH6
_chemical_formula_sum   'Sr1 Nb1 H6'
_cell_volume   72.40166074
_cell_formula_units_Z   1
loop_
 _symmetry_equiv_pos_site_id
 _symmetry_equiv_pos_as_xyz
  1  'x, y, z'
loop_
 _atom_site_type_symbol
 _atom_site_label
 _atom_site_symmetry_multiplicity
 _atom_site_fract_x
 _atom_site_fract_y
 _atom_site_fract_z
 _atom_site_occupancy
  Sr  Sr0  1  0.62815504  0.35827870  0.14650170  1
  Nb  Nb1  1  0.29144065  0.53799544  0.62510884  1
  H  H2  1  0.62444564  0.93332380  0.56086213  1
  H  H3  1  0.95715973  0.15849484  0.66798312  1
  H  H4  1  0.96155625  0.78865177  0.05137737  1
  H  H5  1  0.29625225  0.24127457  0.93354535  1
  H  H6  1  0.96599038  0.92172576  0.92384452  1
  H  H7  1  0.29443507  0.84527812  0.32252498  1
