# generated using pymatgen
data_SrNbH23
_symmetry_space_group_name_H-M   'P 1'
_cell_length_a   3.60523065
_cell_length_b   5.93398655
_cell_length_c   9.50595025
_cell_angle_alpha   95.59291078
_cell_angle_beta   91.11162455
_cell_angle_gamma   89.80239481
_symmetry_Int_Tables_number   1
_chemical_formula_structural   SrNbH23
_chemical_formula_sum   'Sr1 Nb1 H23'
_cell_volume   202.35803962
_cell_formula_units_Z   1
loop_
 _symmetry_equiv_pos_site_id
 _symmetry_equiv_pos_as_xyz
  1  'x, y, z'
loop_
 _atom_site_type_symbol
 _atom_site_label
 _atom_site_symmetry_multiplicity
 _atom_site_fract_x
 _atom_site_fract_y
 _atom_site_fract_z
 _atom_site_occupancy
  Sr  Sr0  1  0.25903607  0.25491355  0.85052676  1
  Nb  Nb1  1  0.74954248  0.73240182  0.96679719  1
  H  H2  1  0.27984482  0.86192013  0.67938295  1
  H  H3  1  0.23698113  0.91500028  0.61155302  1
  H  H4  1  0.25994860  0.10043539  0.37084504  1
  H  H5  1  0.26425034  0.97699083  0.38316057  1
  H  H6  1  0.26255553  0.77460605  0.88856013  1
  H  H7  1  0.75769483  0.34317467  0.36963791  1
  H  H8  1  0.73933103  0.32634111  0.29095588  1
  H  H9  1  0.75128115  0.71845890  0.53749283  1
  H  H10  1  0.73841374  0.73382589  0.46058115  1
  H  H11  1  0.23778958  0.39910618  0.54485244  1
  H  H12  1  0.25809717  0.49871298  0.60034899  1
  H  H13  1  0.24562884  0.63403081  0.28019128  1
  H  H14  1  0.22268521  0.60930256  0.35583106  1
  H  H15  1  0.30463366  0.66754605  0.07340662  1
  H  H16  1  0.77257043  0.41857537  0.98574677  1
  H  H17  1  0.74708044  0.23283209  0.60350756  1
  H  H18  1  0.74680273  0.10658229  0.61111863  1
  H  H19  1  0.88748943  0.96570080  0.13554997  1
  H  H20  1  0.68028246  0.93047017  0.15750369  1
  H  H21  1  0.24400385  0.31964208  0.13134568  1
  H  H22  1  0.29632561  0.19387302  0.12690959  1
  H  H23  1  0.75661400  0.95806140  0.83884638  1
  H  H24  1  0.74713686  0.56496358  0.78571789  1
