# generated using pymatgen
data_SrNbH9
_symmetry_space_group_name_H-M   'P 1'
_cell_length_a   5.43515526
_cell_length_b   5.21565309
_cell_length_c   3.96358178
_cell_angle_alpha   74.32209491
_cell_angle_beta   90.69876732
_cell_angle_gamma   74.41086157
_symmetry_Int_Tables_number   1
_chemical_formula_structural   SrNbH9
_chemical_formula_sum   'Sr1 Nb1 H9'
_cell_volume   103.76272230
_cell_formula_units_Z   1
loop_
 _symmetry_equiv_pos_site_id
 _symmetry_equiv_pos_as_xyz
  1  'x, y, z'
loop_
 _atom_site_type_symbol
 _atom_site_label
 _atom_site_symmetry_multiplicity
 _atom_site_fract_x
 _atom_site_fract_y
 _atom_site_fract_z
 _atom_site_occupancy
  Sr  Sr0  1  0.73511983  0.00397333  0.15288452  1
  Nb  Nb1  1  0.30393754  0.68767120  0.77047583  1
  H  H2  1  0.29123277  0.36764112  0.63463574  1
  H  H3  1  0.13395725  0.45240183  0.63684410  1
  H  H4  1  0.99580580  0.63345525  0.88417645  1
  H  H5  1  0.59603951  0.56095541  0.04665491  1
  H  H6  1  0.25308878  0.80818043  0.22233838  1
  H  H7  1  0.32828698  0.37415105  0.11199640  1
  H  H8  1  0.48129613  0.95972391  0.66420726  1
  H  H9  1  0.04257980  0.02831694  0.63454564  1
  H  H10  1  0.58110261  0.46939953  0.63202278  1
