# generated using pymatgen
data_SrNb5H19
_symmetry_space_group_name_H-M   'P 1'
_cell_length_a   3.41232288
_cell_length_b   6.75828424
_cell_length_c   8.32274741
_cell_angle_alpha   101.49301926
_cell_angle_beta   102.19240887
_cell_angle_gamma   90.18804504
_symmetry_Int_Tables_number   1
_chemical_formula_structural   SrNb5H19
_chemical_formula_sum   'Sr1 Nb5 H19'
_cell_volume   183.63734802
_cell_formula_units_Z   1
loop_
 _symmetry_equiv_pos_site_id
 _symmetry_equiv_pos_as_xyz
  1  'x, y, z'
loop_
 _atom_site_type_symbol
 _atom_site_label
 _atom_site_symmetry_multiplicity
 _atom_site_fract_x
 _atom_site_fract_y
 _atom_site_fract_z
 _atom_site_occupancy
  Sr  Sr0  1  0.12952100  0.62076133  0.65666394  1
  Nb  Nb1  1  0.44150613  0.77042112  0.29555297  1
  Nb  Nb2  1  0.80499416  0.96287141  0.03349558  1
  Nb  Nb3  1  0.79248825  0.46248085  0.01959104  1
  Nb  Nb4  1  0.62348193  0.12277011  0.66727812  1
  Nb  Nb5  1  0.43436089  0.28046385  0.28073449  1
  H  H6  1  0.99412222  0.77617406  0.39992248  1
  H  H7  1  0.58140842  0.83286535  0.53579966  1
  H  H8  1  0.53325176  0.07199057  0.42184593  1
  H  H9  1  0.98520290  0.36960885  0.38308284  1
  H  H10  1  0.92328276  0.12112373  0.25761685  1
  H  H11  1  0.66481740  0.90718269  0.78838345  1
  H  H12  1  0.24240049  0.90298900  0.92325908  1
  H  H13  1  0.36751887  0.97764415  0.16218806  1
  H  H14  1  0.91842808  0.18659689  0.91096398  1
  H  H15  1  0.50171935  0.22277630  0.05685025  1
  H  H16  1  0.31165978  0.20135677  0.80633090  1
  H  H17  1  0.24025635  0.49002141  0.92397991  1
  H  H18  1  0.15192292  0.98008689  0.63672965  1
  H  H19  1  0.69628370  0.40843821  0.76837484  1
  H  H20  1  0.74019806  0.68477398  0.90396922  1
  H  H21  1  0.35236309  0.49911058  0.16260533  1
  H  H22  1  0.15638303  0.24463089  0.58864752  1
  H  H23  1  0.50824191  0.54491695  0.42555830  1
  H  H24  1  0.86475455  0.73869506  0.15772162  1
