# generated using pymatgen
data_Sr3NbH17
_symmetry_space_group_name_H-M   'P 1'
_cell_length_a   5.06428843
_cell_length_b   5.24327126
_cell_length_c   8.29753957
_cell_angle_alpha   92.23586708
_cell_angle_beta   103.01395885
_cell_angle_gamma   95.97778424
_symmetry_Int_Tables_number   1
_chemical_formula_structural   Sr3NbH17
_chemical_formula_sum   'Sr3 Nb1 H17'
_cell_volume   213.05777456
_cell_formula_units_Z   1
loop_
 _symmetry_equiv_pos_site_id
 _symmetry_equiv_pos_as_xyz
  1  'x, y, z'
loop_
 _atom_site_type_symbol
 _atom_site_label
 _atom_site_symmetry_multiplicity
 _atom_site_fract_x
 _atom_site_fract_y
 _atom_site_fract_z
 _atom_site_occupancy
  Sr  Sr0  1  0.10887070  0.53233806  0.74726800  1
  Sr  Sr1  1  0.41379529  0.13370337  0.47639881  1
  Sr  Sr2  1  0.89080527  0.53725109  0.20238885  1
  Nb  Nb3  1  0.28308866  0.07731531  0.05449174  1
  H  H4  1  0.78818877  0.78943530  0.46407781  1
  H  H5  1  0.65367524  0.70181704  0.45981683  1
  H  H6  1  0.22210717  0.68557990  0.47875939  1
  H  H7  1  0.59422607  0.45805317  0.70143733  1
  H  H8  1  0.99095317  0.26154575  0.97675421  1
  H  H9  1  0.21437328  0.04536050  0.82134376  1
  H  H10  1  0.01384104  0.80118009  0.97790776  1
  H  H11  1  0.33268735  0.37168977  0.18861585  1
  H  H12  1  0.48038579  0.33904549  0.97491597  1
  H  H13  1  0.53630847  0.86197649  0.98052662  1
  H  H14  1  0.36183458  0.80616808  0.18240650  1
  H  H15  1  0.64525586  0.84983274  0.71115851  1
  H  H16  1  0.63690654  0.99603879  0.01300950  1
  H  H17  1  0.06218069  0.04994184  0.20500406  1
  H  H18  1  0.72281699  0.98297891  0.74096748  1
  H  H19  1  0.59817273  0.12341064  0.21446972  1
  H  H20  1  0.92631434  0.25254470  0.48417430  1
