# generated using pymatgen
data_SrNb3H16
_symmetry_space_group_name_H-M   'P 1'
_cell_length_a   3.42193092
_cell_length_b   5.89700059
_cell_length_c   8.19274242
_cell_angle_alpha   87.19221968
_cell_angle_beta   94.63139409
_cell_angle_gamma   85.35961756
_symmetry_Int_Tables_number   1
_chemical_formula_structural   SrNb3H16
_chemical_formula_sum   'Sr1 Nb3 H16'
_cell_volume   163.98579418
_cell_formula_units_Z   1
loop_
 _symmetry_equiv_pos_site_id
 _symmetry_equiv_pos_as_xyz
  1  'x, y, z'
loop_
 _atom_site_type_symbol
 _atom_site_label
 _atom_site_symmetry_multiplicity
 _atom_site_fract_x
 _atom_site_fract_y
 _atom_site_fract_z
 _atom_site_occupancy
  Sr  Sr0  1  0.05573160  0.49082137  0.78324302  1
  Nb  Nb1  1  0.26835835  0.32790343  0.31265620  1
  Nb  Nb2  1  0.97687871  0.86629993  0.33444497  1
  Nb  Nb3  1  0.54979833  0.04260892  0.61974494  1
  H  H4  1  0.15411763  0.62416519  0.20592222  1
  H  H5  1  0.02266242  0.56457427  0.43986042  1
  H  H6  1  0.57347309  0.55210823  0.02606559  1
  H  H7  1  0.93123488  0.86586431  0.07623108  1
  H  H8  1  0.56861642  0.65837536  0.96615506  1
  H  H9  1  0.85503349  0.99534638  0.08392568  1
  H  H10  1  0.54073418  0.78362062  0.76298526  1
  H  H11  1  0.58477936  0.18473292  0.82021585  1
  H  H12  1  0.39160886  0.02038595  0.23508079  1
  H  H13  1  0.73070578  0.37984060  0.21287923  1
  H  H14  1  0.05117981  0.86552066  0.57149026  1
  H  H15  1  0.06538643  0.09660292  0.72382137  1
  H  H16  1  0.21091619  0.30842362  0.08777747  1
  H  H17  1  0.47263178  0.35731526  0.57837146  1
  H  H18  1  0.77549506  0.16375493  0.42377958  1
  H  H19  1  0.49893864  0.78532312  0.43819756  1
