# generated using pymatgen
data_SrNbH16
_symmetry_space_group_name_H-M   'P 1'
_cell_length_a   3.50908043
_cell_length_b   5.92808080
_cell_length_c   8.48913307
_cell_angle_alpha   85.39366309
_cell_angle_beta   99.40329667
_cell_angle_gamma   89.32647461
_symmetry_Int_Tables_number   1
_chemical_formula_structural   SrNbH16
_chemical_formula_sum   'Sr1 Nb1 H16'
_cell_volume   173.60069363
_cell_formula_units_Z   1
loop_
 _symmetry_equiv_pos_site_id
 _symmetry_equiv_pos_as_xyz
  1  'x, y, z'
loop_
 _atom_site_type_symbol
 _atom_site_label
 _atom_site_symmetry_multiplicity
 _atom_site_fract_x
 _atom_site_fract_y
 _atom_site_fract_z
 _atom_site_occupancy
  Sr  Sr0  1  0.39097241  0.56224099  0.62116547  1
  Nb  Nb1  1  0.88122463  0.06857457  0.52774936  1
  H  H2  1  0.87596736  0.11981344  0.28135829  1
  H  H3  1  0.64909728  0.12472193  0.28216146  1
  H  H4  1  0.23896666  0.29799008  0.93719716  1
  H  H5  1  0.35031781  0.36660867  -0.00025875  1
  H  H6  1  0.52585828  0.78454089  0.95037203  1
  H  H7  1  0.63480826  0.84030385  0.88716269  1
  H  H8  1  0.15314962  0.89340035  0.09670954  1
  H  H9  1  0.25708068  0.85547131  0.17887440  1
  H  H10  1  0.82813656  0.54487961  0.13237206  1
  H  H11  1  0.79370210  0.51947118  0.21652083  1
  H  H12  1  0.83220560  0.38294686  0.47292070  1
  H  H13  1  0.37066644  0.15484927  0.61624483  1
  H  H14  1  0.30154691  0.95005440  0.44943137  1
  H  H15  1  0.82035684  0.77367107  0.46071720  1
  H  H16  1  0.93742470  0.85697655  0.70637594  1
  H  H17  1  0.91723188  0.22216301  0.71266441  1
