# generated using pymatgen
data_SrNb2H19
_symmetry_space_group_name_H-M   'P 1'
_cell_length_a   3.53122591
_cell_length_b   6.61676290
_cell_length_c   6.72621926
_cell_angle_alpha   82.20411239
_cell_angle_beta   90.14625666
_cell_angle_gamma   89.64755085
_symmetry_Int_Tables_number   1
_chemical_formula_structural   SrNb2H19
_chemical_formula_sum   'Sr1 Nb2 H19'
_cell_volume   155.70363215
_cell_formula_units_Z   1
loop_
 _symmetry_equiv_pos_site_id
 _symmetry_equiv_pos_as_xyz
  1  'x, y, z'
loop_
 _atom_site_type_symbol
 _atom_site_label
 _atom_site_symmetry_multiplicity
 _atom_site_fract_x
 _atom_site_fract_y
 _atom_site_fract_z
 _atom_site_occupancy
  Sr  Sr0  1  0.77879597  0.69009745  0.92905605  1
  Nb  Nb1  1  0.30435189  0.74600847  0.39327024  1
  Nb  Nb2  1  0.29219950  0.25778989  0.32368347  1
  H  H3  1  0.76665718  0.68472400  0.53998819  1
  H  H4  1  0.27549630  0.78498946  0.67407195  1
  H  H5  1  0.84945198  0.02527042  0.74581819  1
  H  H6  1  0.68613695  0.99288648  0.68620820  1
  H  H7  1  0.77290212  0.74842998  0.26443907  1
  H  H8  1  0.55086646  0.00075823  0.37616839  1
  H  H9  1  0.28503003  0.13929314  0.83289381  1
  H  H10  1  0.27747561  0.09931883  0.94404762  1
  H  H11  1  0.28109064  0.87521305  0.13716425  1
  H  H12  1  0.04968881  0.00064082  0.38733791  1
  H  H13  1  0.79289205  0.26976480  0.44225096  1
  H  H14  1  0.78148155  0.36284807  0.70860509  1
  H  H15  1  0.78274975  0.31728447  0.81720273  1
  H  H16  1  0.28147144  0.43347433  0.92654909  1
  H  H17  1  0.28151943  0.47610911  0.81478268  1
  H  H18  1  0.28061542  0.55089523  0.19693747  1
  H  H19  1  0.29275885  0.44844865  0.50103005  1
  H  H20  1  0.79118256  0.28164890  0.14533371  1
  H  H21  1  0.28884353  0.18231324  0.57864487  1
