# generated using pymatgen
data_Sr2NbH12
_symmetry_space_group_name_H-M   'P 1'
_cell_length_a   3.85890052
_cell_length_b   7.03937118
_cell_length_c   7.21454882
_cell_angle_alpha   71.37572219
_cell_angle_beta   63.59704191
_cell_angle_gamma   79.82560356
_symmetry_Int_Tables_number   1
_chemical_formula_structural   Sr2NbH12
_chemical_formula_sum   'Sr2 Nb1 H12'
_cell_volume   166.20429357
_cell_formula_units_Z   1
loop_
 _symmetry_equiv_pos_site_id
 _symmetry_equiv_pos_as_xyz
  1  'x, y, z'
loop_
 _atom_site_type_symbol
 _atom_site_label
 _atom_site_symmetry_multiplicity
 _atom_site_fract_x
 _atom_site_fract_y
 _atom_site_fract_z
 _atom_site_occupancy
  Sr  Sr0  1  0.92111894  0.07888603  0.39730125  1
  Sr  Sr1  1  0.89334346  0.36627371  0.80614817  1
  Nb  Nb2  1  0.16676512  0.81370688  0.87758971  1
  H  H3  1  0.94490464  0.71997885  0.20043251  1
  H  H4  1  0.84761910  0.64756647  0.16993668  1
  H  H5  1  0.34288376  0.53838252  0.42461705  1
  H  H6  1  0.16811696  0.59558038  0.40503931  1
  H  H7  1  0.52766742  0.24131114  0.20599649  1
  H  H8  1  0.22170419  0.53304311  0.93665717  1
  H  H9  1  0.60978285  0.34007113  0.58260055  1
  H  H10  1  0.02685540  0.01972821  0.01758372  1
  H  H11  1  0.62737126  0.86960461  0.93784448  1
  H  H12  1  0.55968338  0.75912038  0.63751534  1
  H  H13  1  0.03509498  0.75172669  0.69958650  1
  H  H14  1  0.22156054  0.04407188  0.65350107  1
