# generated using pymatgen
data_SrNbH6
_symmetry_space_group_name_H-M   'P 1'
_cell_length_a   3.51566040
_cell_length_b   6.62362037
_cell_length_c   3.51374345
_cell_angle_alpha   89.99826222
_cell_angle_beta   90.52843954
_cell_angle_gamma   121.47536186
_symmetry_Int_Tables_number   1
_chemical_formula_structural   SrNbH6
_chemical_formula_sum   'Sr1 Nb1 H6'
_cell_volume   69.77940571
_cell_formula_units_Z   1
loop_
 _symmetry_equiv_pos_site_id
 _symmetry_equiv_pos_as_xyz
  1  'x, y, z'
loop_
 _atom_site_type_symbol
 _atom_site_label
 _atom_site_symmetry_multiplicity
 _atom_site_fract_x
 _atom_site_fract_y
 _atom_site_fract_z
 _atom_site_occupancy
  Sr  Sr0  1  0.58141142  0.76600481  0.02053212  1
  Nb  Nb1  1  0.55100116  0.26615218  0.55190299  1
  H  H2  1  0.93232913  0.09170055  0.53381136  1
  H  H3  1  0.27193294  0.43894451  0.53144018  1
  H  H4  1  0.92698958  0.59987604  0.50718264  1
  H  H5  1  0.27685980  0.93254601  0.49739349  1
  H  H6  1  0.74129523  0.43901859  0.00277020  1
  H  H7  1  0.39315174  0.09165931  -0.00181097  1
