# generated using pymatgen
data_SrNb2H15
_symmetry_space_group_name_H-M   'P 1'
_cell_length_a   3.59403524
_cell_length_b   5.85025492
_cell_length_c   7.29329305
_cell_angle_alpha   92.26685438
_cell_angle_beta   116.48423973
_cell_angle_gamma   88.26018345
_symmetry_Int_Tables_number   1
_chemical_formula_structural   SrNb2H15
_chemical_formula_sum   'Sr1 Nb2 H15'
_cell_volume   137.13476762
_cell_formula_units_Z   1
loop_
 _symmetry_equiv_pos_site_id
 _symmetry_equiv_pos_as_xyz
  1  'x, y, z'
loop_
 _atom_site_type_symbol
 _atom_site_label
 _atom_site_symmetry_multiplicity
 _atom_site_fract_x
 _atom_site_fract_y
 _atom_site_fract_z
 _atom_site_occupancy
  Sr  Sr0  1  0.79352178  0.59146048  0.88401342  1
  Nb  Nb1  1  0.44107631  0.92220908  0.38387274  1
  Nb  Nb2  1  0.75798996  0.39143337  0.36074038  1
  H  H3  1  0.58751655  0.11407947  0.21723642  1
  H  H4  1  0.82793152  0.17949223  0.94527485  1
  H  H5  1  0.33005976  0.91888930  0.93515793  1
  H  H6  1  0.22839515  0.91210145  0.81705256  1
  H  H7  1  0.09142205  0.45002697  0.65744874  1
  H  H8  1  0.28634274  0.24539326  0.47208803  1
  H  H9  1  0.73253738  0.16823164  0.82883180  1
  H  H10  1  0.84425176  0.14232828  0.53358375  1
  H  H11  1  0.99316481  0.91758609  0.13486943  1
  H  H12  1  0.48933163  0.70161001  0.20588149  1
  H  H13  1  0.46476116  0.39575275  0.06950639  1
  H  H14  1  0.56463593  0.63058152  0.49729985  1
  H  H15  1  0.09750387  0.42535680  0.22856658  1
  H  H16  1  0.56219344  0.91153199  0.64976503  1
  H  H17  1  -0.00008481  0.81516632  0.46334160  1
