# generated using pymatgen
data_Sr5NbH15
_symmetry_space_group_name_H-M   'P 1'
_cell_length_a   6.70522315
_cell_length_b   6.81121125
_cell_length_c   7.14723402
_cell_angle_alpha   69.54279904
_cell_angle_beta   77.85195810
_cell_angle_gamma   61.09925490
_symmetry_Int_Tables_number   1
_chemical_formula_structural   Sr5NbH15
_chemical_formula_sum   'Sr5 Nb1 H15'
_cell_volume   267.40073958
_cell_formula_units_Z   1
loop_
 _symmetry_equiv_pos_site_id
 _symmetry_equiv_pos_as_xyz
  1  'x, y, z'
loop_
 _atom_site_type_symbol
 _atom_site_label
 _atom_site_symmetry_multiplicity
 _atom_site_fract_x
 _atom_site_fract_y
 _atom_site_fract_z
 _atom_site_occupancy
  Sr  Sr0  1  0.92027125  0.31996726  0.62723825  1
  Sr  Sr1  1  0.93080798  0.82223644  0.11461713  1
  Sr  Sr2  1  0.58013738  0.97033994  0.65697002  1
  Sr  Sr3  1  0.59461091  0.50501820  0.11598744  1
  Sr  Sr4  1  0.25717097  0.62197668  0.66128508  1
  Nb  Nb5  1  0.27680148  0.12027834  0.21771603  1
  H  H6  1  0.71756450  0.13346550  0.84212582  1
  H  H7  1  0.20839810  0.89839627  0.82129797  1
  H  H8  1  0.97882157  0.38127895  0.23856327  1
  H  H9  1  0.59325294  0.58679646  0.76270282  1
  H  H10  1  0.92507306  0.70359852  0.48785698  1
  H  H11  1  0.58352194  0.36385096  0.48526253  1
  H  H12  1  0.09205431  0.03756595  0.43134062  1
  H  H13  1  0.10514945  0.20876785  0.98838513  1
  H  H14  1  0.27114910  0.25768582  0.41104841  1
  H  H15  1  0.50233130  0.94630531  0.04498153  1
  H  H16  1  0.87291173  0.67362781  0.87765844  1
  H  H17  1  0.24200051  0.85420005  0.22932886  1
  H  H18  1  0.46699120  0.84567537  0.40100069  1
  H  H19  1  0.55629669  0.11338583  0.23672128  1
  H  H20  1  0.28303563  0.41794651  0.04724770  1
