# generated using pymatgen
data_SrNb3H20
_symmetry_space_group_name_H-M   'P 1'
_cell_length_a   5.70487752
_cell_length_b   5.58430004
_cell_length_c   6.98935834
_cell_angle_alpha   95.40090461
_cell_angle_beta   92.67130853
_cell_angle_gamma   88.18625100
_symmetry_Int_Tables_number   1
_chemical_formula_structural   SrNb3H20
_chemical_formula_sum   'Sr1 Nb3 H20'
_cell_volume   221.35256997
_cell_formula_units_Z   1
loop_
 _symmetry_equiv_pos_site_id
 _symmetry_equiv_pos_as_xyz
  1  'x, y, z'
loop_
 _atom_site_type_symbol
 _atom_site_label
 _atom_site_symmetry_multiplicity
 _atom_site_fract_x
 _atom_site_fract_y
 _atom_site_fract_z
 _atom_site_occupancy
  Sr  Sr0  1  0.93949240  0.04138330  0.48795398  1
  Nb  Nb1  1  0.50893623  0.59426239  0.55567087  1
  Nb  Nb2  1  0.44648172  0.71126333  0.10023106  1
  Nb  Nb3  1  0.39062948  0.22884686  0.20954777  1
  H  H4  1  0.63146131  0.32194685  0.39375031  1
  H  H5  1  0.60631618  0.40357288  0.08697442  1
  H  H6  1  0.35002689  0.41669081  0.75727533  1
  H  H7  1  0.54852835  0.70367212  0.82907380  1
  H  H8  1  0.41356777  0.31125790  0.68862190  1
  H  H9  1  0.49678106  0.92061090  0.58315657  1
  H  H10  1  0.64423763  0.71113574  0.32199317  1
  H  H11  1  0.22549279  0.71474564  0.63018969  1
  H  H12  1  0.28260911  0.90404211  0.28557025  1
  H  H13  1  0.26046874  0.35306258  0.43536984  1
  H  H14  1  0.04067718  0.69637511  0.98280128  1
  H  H15  1  0.08725131  0.73648797  0.89027917  1
  H  H16  1  0.72888884  0.42369613  0.67473323  1
  H  H17  1  0.79374737  0.71400446  0.60689189  1
  H  H18  1  0.83365660  0.18941100  0.84260818  1
  H  H19  1  0.83266420  0.05715678  0.85714181  1
  H  H20  1  0.64244604  0.99788522  0.15416788  1
  H  H21  1  0.07565085  0.21418498  0.19837859  1
  H  H22  1  0.23755441  0.43365475  0.05725937  1
  H  H23  1  0.31835553  0.00949519  0.99316265  1
