# generated using pymatgen
data_Sr2NbH18
_symmetry_space_group_name_H-M   'P 1'
_cell_length_a   4.03236322
_cell_length_b   7.62600877
_cell_length_c   7.82219005
_cell_angle_alpha   121.90963593
_cell_angle_beta   101.71649678
_cell_angle_gamma   92.85588331
_symmetry_Int_Tables_number   1
_chemical_formula_structural   Sr2NbH18
_chemical_formula_sum   'Sr2 Nb1 H18'
_cell_volume   196.32843149
_cell_formula_units_Z   1
loop_
 _symmetry_equiv_pos_site_id
 _symmetry_equiv_pos_as_xyz
  1  'x, y, z'
loop_
 _atom_site_type_symbol
 _atom_site_label
 _atom_site_symmetry_multiplicity
 _atom_site_fract_x
 _atom_site_fract_y
 _atom_site_fract_z
 _atom_site_occupancy
  Sr  Sr0  1  0.04403897  0.42736866  0.68067579  1
  Sr  Sr1  1  0.71985491  0.06872529  0.94345953  1
  Nb  Nb2  1  0.45139576  0.49989598  0.33370047  1
  H  H3  1  0.09458738  0.91607246  0.64556875  1
  H  H4  1  0.17400616  0.02459707  0.67446469  1
  H  H5  1  0.48952192  0.55456546  0.59791944  1
  H  H6  1  0.58819375  0.21293066  0.69828277  1
  H  H7  1  0.66623166  0.64300933  0.95083452  1
  H  H8  1  0.66000347  0.55837691  0.97556952  1
  H  H9  1  0.08315852  0.86593589  0.31519129  1
  H  H10  1  0.82332190  0.49029624  0.21893628  1
  H  H11  1  0.20508319  0.26259957  0.28602628  1
  H  H12  1  0.56666882  0.80516331  0.43429500  1
  H  H13  1  0.55744596  0.74529709  0.31201868  1
  H  H14  1  0.68861174  0.00832319  0.25686849  1
  H  H15  1  0.51848701  0.95129981  0.17268355  1
  H  H16  1  0.69316627  0.31606775  0.32994606  1
  H  H17  1  0.11210893  0.87698501  0.22852275  1
  H  H18  1  0.16863670  0.83183311  0.91202953  1
  H  H19  1  0.87504144  0.63176608  0.51876355  1
  H  H20  1  0.28098352  0.31839313  0.03553905  1
