# generated using pymatgen
data_Sr2NbH11
_symmetry_space_group_name_H-M   'P 1'
_cell_length_a   4.08516029
_cell_length_b   5.99839230
_cell_length_c   6.45518402
_cell_angle_alpha   93.57965989
_cell_angle_beta   84.12754907
_cell_angle_gamma   86.29504135
_symmetry_Int_Tables_number   1
_chemical_formula_structural   Sr2NbH11
_chemical_formula_sum   'Sr2 Nb1 H11'
_cell_volume   156.64109267
_cell_formula_units_Z   1
loop_
 _symmetry_equiv_pos_site_id
 _symmetry_equiv_pos_as_xyz
  1  'x, y, z'
loop_
 _atom_site_type_symbol
 _atom_site_label
 _atom_site_symmetry_multiplicity
 _atom_site_fract_x
 _atom_site_fract_y
 _atom_site_fract_z
 _atom_site_occupancy
  Sr  Sr0  1  0.67758284  0.43797857  0.01534158  1
  Sr  Sr1  1  0.73701341  0.92571187  0.44358353  1
  Nb  Nb2  1  0.16631400  0.92869850  0.89989444  1
  H  H3  1  0.37898635  0.12311356  0.75113252  1
  H  H4  1  0.22778688  0.18524513  0.05934149  1
  H  H5  1  0.28537987  0.27619621  0.39337740  1
  H  H6  1  0.42226397  0.34907685  0.42069678  1
  H  H7  1  0.76862249  0.53712188  0.36311334  1
  H  H8  1  0.73333116  0.82111462  0.83904934  1
  H  H9  1  0.20303839  0.61586257  0.88208603  1
  H  H10  1  0.92732479  0.13616675  0.77411546  1
  H  H11  1  0.21411928  0.82475903  0.62133191  1
  H  H12  1  0.24940168  0.83249940  0.16791874  1
  H  H13  1  0.81185689  0.03618505  0.07958043  1
