# generated using pymatgen
data_SrNb6H17
_symmetry_space_group_name_H-M   'P 1'
_cell_length_a   6.59785126
_cell_length_b   6.67665319
_cell_length_c   6.53371041
_cell_angle_alpha   90.02177294
_cell_angle_beta   60.59400925
_cell_angle_gamma   60.02388703
_symmetry_Int_Tables_number   1
_chemical_formula_structural   SrNb6H17
_chemical_formula_sum   'Sr1 Nb6 H17'
_cell_volume   205.36295380
_cell_formula_units_Z   1
loop_
 _symmetry_equiv_pos_site_id
 _symmetry_equiv_pos_as_xyz
  1  'x, y, z'
loop_
 _atom_site_type_symbol
 _atom_site_label
 _atom_site_symmetry_multiplicity
 _atom_site_fract_x
 _atom_site_fract_y
 _atom_site_fract_z
 _atom_site_occupancy
  Sr  Sr0  1  0.95740110  0.02429553  0.94931734  1
  Nb  Nb1  1  0.44782931  0.51941296  0.44685214  1
  Nb  Nb2  1  0.95386903  0.52824034  0.95122665  1
  Nb  Nb3  1  0.45328724  0.02188618  0.44972899  1
  Nb  Nb4  1  0.45318795  0.02177308  0.95400345  1
  Nb  Nb5  1  0.44736665  0.51912876  0.96251747  1
  Nb  Nb6  1  0.95281929  0.03377725  0.45160259  1
  H  H7  1  0.19373793  0.40172327  0.08385304  1
  H  H8  1  0.69892548  0.65098718  0.33223769  1
  H  H9  1  0.19365701  0.40219248  0.57981427  1
  H  H10  1  0.22798403  0.61535032  0.81364630  1
  H  H11  1  0.67656037  0.16384315  0.36764099  1
  H  H12  1  0.23375319  0.88182930  0.53502040  1
  H  H13  1  0.22618913  0.16775365  0.81458038  1
  H  H14  1  0.67566934  0.16409902  0.81102134  1
  H  H15  1  0.69738959  0.65132721  0.82607547  1
  H  H16  1  0.69108503  0.44068117  0.08380565  1
  H  H17  1  0.17846554  0.67257783  0.33852999  1
  H  H18  1  0.68425234  0.88415836  0.08684861  1
  H  H19  1  0.44263344  0.33662558  0.20692648  1
  H  H20  1  0.19582995  0.16120963  0.32974137  1
  H  H21  1  0.70792871  0.89853298  0.57509711  1
  H  H22  1  0.23355490  0.88211906  0.08939634  1
  H  H23  1  0.69557147  0.40754569  0.58132994  1
