# generated using pymatgen
data_SrNb2H21
_symmetry_space_group_name_H-M   'P 1'
_cell_length_a   5.12803221
_cell_length_b   5.44909898
_cell_length_c   7.13006437
_cell_angle_alpha   86.41654808
_cell_angle_beta   94.81668577
_cell_angle_gamma   81.27804671
_symmetry_Int_Tables_number   1
_chemical_formula_structural   SrNb2H21
_chemical_formula_sum   'Sr1 Nb2 H21'
_cell_volume   195.66368960
_cell_formula_units_Z   1
loop_
 _symmetry_equiv_pos_site_id
 _symmetry_equiv_pos_as_xyz
  1  'x, y, z'
loop_
 _atom_site_type_symbol
 _atom_site_label
 _atom_site_symmetry_multiplicity
 _atom_site_fract_x
 _atom_site_fract_y
 _atom_site_fract_z
 _atom_site_occupancy
  Sr  Sr0  1  0.46966672  0.50839363  0.70220211  1
  Nb  Nb1  1  0.84780670  0.73367668  0.34464389  1
  Nb  Nb2  1  0.42676337  0.38969121  0.22006572  1
  H  H3  1  0.29611455  0.91676839  0.84227094  1
  H  H4  1  0.33527987  0.96670322  0.74926646  1
  H  H5  1  0.80674459  0.78719727  0.91237147  1
  H  H6  1  0.80708647  0.80622966  0.80628547  1
  H  H7  1  0.94959507  0.25719167  0.75538511  1
  H  H8  1  0.90467123  0.22191966  0.85129791  1
  H  H9  1  0.59830088  0.65702126  0.14594499  1
  H  H10  1  0.23084326  0.68423745  0.34891542  1
  H  H11  1  0.70254070  0.43599711  0.40123704  1
  H  H12  1  0.99683870  0.59277406  0.57945540  1
  H  H13  1  0.24612222  0.55033138  0.00067279  1
  H  H14  1  0.96831882  0.91064376  0.15843246  1
  H  H15  1  0.17998337  0.14857612  0.13153342  1
  H  H16  1  0.31299348  0.12511507  0.07536800  1
  H  H17  1  0.05503386  0.43955901  0.22884299  1
  H  H18  1  0.07768245  0.97926958  0.44036271  1
  H  H19  1  0.34227736  0.25172365  0.44776202  1
  H  H20  1  0.64024289  0.83639377  0.53061835  1
  H  H21  1  0.94092106  0.01148795  0.48981574  1
  H  H22  1  0.63085480  0.05701343  0.27203408  1
  H  H23  1  0.60493960  0.28388502  0.01886851  1
