# generated using pymatgen
data_SrNbH9
_symmetry_space_group_name_H-M   'P 1'
_cell_length_a   4.07346191
_cell_length_b   7.60790131
_cell_length_c   6.22941457
_cell_angle_alpha   89.61418300
_cell_angle_beta   108.07927528
_cell_angle_gamma   90.53961765
_symmetry_Int_Tables_number   1
_chemical_formula_structural   SrNbH9
_chemical_formula_sum   'Sr2 Nb2 H18'
_cell_volume   183.51164814
_cell_formula_units_Z   2
loop_
 _symmetry_equiv_pos_site_id
 _symmetry_equiv_pos_as_xyz
  1  'x, y, z'
loop_
 _atom_site_type_symbol
 _atom_site_label
 _atom_site_symmetry_multiplicity
 _atom_site_fract_x
 _atom_site_fract_y
 _atom_site_fract_z
 _atom_site_occupancy
  Sr  Sr0  1  0.70726231  0.30112748  0.02086604  1
  Sr  Sr1  1  0.71801388  0.79806212  0.02410810  1
  Nb  Nb2  1  0.47292697  0.57630825  0.43571706  1
  Nb  Nb3  1  0.46821772  0.07751769  0.43154732  1
  H  H4  1  0.20753509  0.52396212  0.12968849  1
  H  H5  1  0.74603927  0.54930784  0.25896353  1
  H  H6  1  0.08654488  0.76038689  0.77590486  1
  H  H7  1  0.10058708  0.86077313  0.79932896  1
  H  H8  1  0.56424755  0.04443132  0.75015735  1
  H  H9  1  0.29792515  0.26554569  0.25551075  1
  H  H10  1  0.44315421  0.28383434  0.57540783  1
  H  H11  1  0.43311190  0.78058466  0.57711490  1
  H  H12  1  0.19060675  0.02384062  0.13096409  1
  H  H13  1  0.31900848  0.76803693  0.25923519  1
  H  H14  1  0.08267645  0.24301181  0.78284501  1
  H  H15  1  0.08657888  0.34379123  0.78656444  1
  H  H16  1  0.76186994  0.24601977  0.42677729  1
  H  H17  1  0.77532575  0.74433004  0.44691203  1
  H  H18  1  0.93000806  0.53201670  0.57129721  1
  H  H19  1  0.93298368  0.03801307  0.55435831  1
  H  H20  1  0.55817800  0.54520975  0.75233969  1
  H  H21  1  0.71925400  0.04753255  0.24358554  1
