# generated using pymatgen
data_SrNbH8
_symmetry_space_group_name_H-M   'P 1'
_cell_length_a   3.83381945
_cell_length_b   3.43676408
_cell_length_c   6.92089775
_cell_angle_alpha   94.96303711
_cell_angle_beta   103.64895132
_cell_angle_gamma   90.98085885
_symmetry_Int_Tables_number   1
_chemical_formula_structural   SrNbH8
_chemical_formula_sum   'Sr1 Nb1 H8'
_cell_volume   88.21546648
_cell_formula_units_Z   1
loop_
 _symmetry_equiv_pos_site_id
 _symmetry_equiv_pos_as_xyz
  1  'x, y, z'
loop_
 _atom_site_type_symbol
 _atom_site_label
 _atom_site_symmetry_multiplicity
 _atom_site_fract_x
 _atom_site_fract_y
 _atom_site_fract_z
 _atom_site_occupancy
  Sr  Sr0  1  0.31630162  0.86692109  0.26065717  1
  Nb  Nb1  1  0.12723644  0.48513550  0.69785643  1
  H  H2  1  0.92216907  0.91307525  0.53858584  1
  H  H3  1  0.37111086  0.99313599  0.74198878  1
  H  H4  1  0.41044231  0.56714317  0.94083055  1
  H  H5  1  0.92430592  0.81955760  0.85682891  1
  H  H6  1  0.73807293  0.62594028  0.83047072  1
  H  H7  1  0.00792216  0.26130529  0.89336288  1
  H  H8  1  0.80038295  0.34437247  0.22423416  1
  H  H9  1  0.42376575  0.41089038  0.51048757  1
