# generated using pymatgen
data_SrNbH11
_symmetry_space_group_name_H-M   'P 1'
_cell_length_a   3.46180323
_cell_length_b   3.33908502
_cell_length_c   10.18004007
_cell_angle_alpha   83.24439080
_cell_angle_beta   82.14027886
_cell_angle_gamma   89.91563862
_symmetry_Int_Tables_number   1
_chemical_formula_structural   SrNbH11
_chemical_formula_sum   'Sr1 Nb1 H11'
_cell_volume   115.74612328
_cell_formula_units_Z   1
loop_
 _symmetry_equiv_pos_site_id
 _symmetry_equiv_pos_as_xyz
  1  'x, y, z'
loop_
 _atom_site_type_symbol
 _atom_site_label
 _atom_site_symmetry_multiplicity
 _atom_site_fract_x
 _atom_site_fract_y
 _atom_site_fract_z
 _atom_site_occupancy
  Sr  Sr0  1  0.49829898  0.31350047  0.50933929  1
  Nb  Nb1  1  0.88979718  0.70986293  0.79484866  1
  H  H2  1  0.80042054  0.58543701  0.25190137  1
  H  H3  1  0.66660775  0.45635059  0.22165455  1
  H  H4  1  0.95047526  0.64607724  0.98799345  1
  H  H5  1  0.19279984  0.65605338  0.95039278  1
  H  H6  1  0.25255034  0.06172210  0.16618720  1
  H  H7  1  0.37386624  0.08520769  0.09717048  1
  H  H8  1  0.74515569  0.17333024  0.90026763  1
  H  H9  1  0.40870135  0.73557029  0.71538215  1
  H  H10  1  0.95093714  0.77513383  0.60718318  1
  H  H11  1  0.05177412  0.85941666  0.40298512  1
  H  H12  1  0.90435658  0.24384857  0.69834614  1
