# generated using pymatgen
data_SrNbH7
_symmetry_space_group_name_H-M   'P 1'
_cell_length_a   3.79775406
_cell_length_b   5.30214616
_cell_length_c   5.45285710
_cell_angle_alpha   90.36897898
_cell_angle_beta   90.85791677
_cell_angle_gamma   135.39267163
_symmetry_Int_Tables_number   1
_chemical_formula_structural   SrNbH7
_chemical_formula_sum   'Sr1 Nb1 H7'
_cell_volume   77.07495028
_cell_formula_units_Z   1
loop_
 _symmetry_equiv_pos_site_id
 _symmetry_equiv_pos_as_xyz
  1  'x, y, z'
loop_
 _atom_site_type_symbol
 _atom_site_label
 _atom_site_symmetry_multiplicity
 _atom_site_fract_x
 _atom_site_fract_y
 _atom_site_fract_z
 _atom_site_occupancy
  Sr  Sr0  1  0.36401340  0.75607803  0.54965995  1
  Nb  Nb1  1  0.41183524  0.20721550  0.04116070  1
  H  H2  1  0.85663810  0.79175220  0.88177673  1
  H  H3  1  0.92604790  0.27727287  0.89629363  1
  H  H4  1  0.81045253  0.24633295  0.26097406  1
  H  H5  1  0.94704338  0.85558580  0.24571038  1
  H  H6  1  0.32193357  0.82617059  0.04891258  1
  H  H7  1  0.43019806  0.35612625  0.34791961  1
  H  H8  1  0.41809383  0.26664281  0.70332835  1
