# generated using pymatgen
data_SrNbH21
_symmetry_space_group_name_H-M   'P 1'
_cell_length_a   5.05872795
_cell_length_b   5.31383316
_cell_length_c   7.74183329
_cell_angle_alpha   93.45727279
_cell_angle_beta   90.90899902
_cell_angle_gamma   83.49819522
_symmetry_Int_Tables_number   1
_chemical_formula_structural   SrNbH21
_chemical_formula_sum   'Sr1 Nb1 H21'
_cell_volume   206.38666559
_cell_formula_units_Z   1
loop_
 _symmetry_equiv_pos_site_id
 _symmetry_equiv_pos_as_xyz
  1  'x, y, z'
loop_
 _atom_site_type_symbol
 _atom_site_label
 _atom_site_symmetry_multiplicity
 _atom_site_fract_x
 _atom_site_fract_y
 _atom_site_fract_z
 _atom_site_occupancy
  Sr  Sr0  1  0.25777328  0.16927056  0.21206796  1
  Nb  Nb1  1  0.77787206  0.67664636  0.34414311  1
  H  H2  1  0.36613527  0.80360683  0.71010280  1
  H  H3  1  0.25471499  0.72681340  0.72302030  1
  H  H4  1  0.49977488  0.50858132  0.50123298  1
  H  H5  1  0.64036594  0.43200103  0.51975761  1
  H  H6  1  -0.00571305  0.42819347  0.45833793  1
  H  H7  1  0.43294563  0.48831941  0.96422470  1
  H  H8  1  0.37155716  0.41162752  0.89215515  1
  H  H9  1  0.57119898  0.04416820  0.90098806  1
  H  H10  1  0.61754826  0.94886143  0.96625617  1
  H  H11  1  0.81818846  0.96770809  0.24301671  1
  H  H12  1  0.01932419  0.20211238  0.85631068  1
  H  H13  1  0.83613585  0.90988222  0.56239879  1
  H  H14  1  0.98411481  0.87607551  0.52511192  1
  H  H15  1  0.12054763  0.71236022  0.33420181  1
  H  H16  1  0.87088100  0.60264380  0.87015070  1
  H  H17  1  0.87096347  0.58385726  0.77224829  1
  H  H18  1  0.92450242  0.62219388  0.13210101  1
  H  H19  1  0.72995660  0.36993903  0.23915890  1
  H  H20  1  0.51939580  0.91928209  0.42918126  1
  H  H21  1  0.51921343  0.70863908  0.17495972  1
  H  H22  1  0.04612393  0.06102191  0.85711446  1
