# generated using pymatgen
data_SrNb3H19
_symmetry_space_group_name_H-M   'P 1'
_cell_length_a   3.43325510
_cell_length_b   6.45119349
_cell_length_c   8.26018120
_cell_angle_alpha   80.78041405
_cell_angle_beta   78.21544175
_cell_angle_gamma   89.97377766
_symmetry_Int_Tables_number   1
_chemical_formula_structural   SrNb3H19
_chemical_formula_sum   'Sr1 Nb3 H19'
_cell_volume   176.68302021
_cell_formula_units_Z   1
loop_
 _symmetry_equiv_pos_site_id
 _symmetry_equiv_pos_as_xyz
  1  'x, y, z'
loop_
 _atom_site_type_symbol
 _atom_site_label
 _atom_site_symmetry_multiplicity
 _atom_site_fract_x
 _atom_site_fract_y
 _atom_site_fract_z
 _atom_site_occupancy
  Sr  Sr0  1  0.43439059  0.68665321  0.25874673  1
  Nb  Nb1  1  0.74624979  0.36104335  0.62257301  1
  Nb  Nb2  1  0.74712591  0.89452342  0.61467265  1
  Nb  Nb3  1  0.09858051  0.56396842  0.90715989  1
  H  H4  1  0.32395263  0.40207160  0.51168622  1
  H  H5  1  0.86838323  0.41771721  0.39797135  1
  H  H6  1  0.23014112  0.33776381  0.77437040  1
  H  H7  1  0.21927143  0.84434310  0.75800516  1
  H  H8  1  0.83062044  0.09326988  0.75379216  1
  H  H9  1  0.90093699  0.15860351  0.48341006  1
  H  H10  1  0.41332825  0.11972504  0.65883519  1
  H  H11  1  0.55444953  0.24838499  0.23079419  1
  H  H12  1  0.35548531  0.21950064  0.29039736  1
  H  H13  1  0.32490141  0.90508231  0.50063375  1
  H  H14  1  0.87418992  0.92851906  0.38685382  1
  H  H15  1  0.79771574  0.64862510  0.50745401  1
  H  H16  1  0.40500701  0.01693205  0.03972876  1
  H  H17  1  0.59325976  0.05819955  0.05993620  1
  H  H18  1  0.04537219  0.28899917  0.98151623  1
  H  H19  1  0.55645451  0.50684198  0.01345000  1
  H  H20  1  0.99303991  0.46978019  0.12936309  1
  H  H21  1  0.69858489  0.60002545  0.76637666  1
  H  H22  1  0.04605294  0.78383593  0.03150012  1
