# generated using pymatgen
data_Sr2NbH10
_symmetry_space_group_name_H-M   'P 1'
_cell_length_a   3.88565154
_cell_length_b   5.89674733
_cell_length_c   7.02850650
_cell_angle_alpha   97.78248787
_cell_angle_beta   112.90197586
_cell_angle_gamma   89.32896173
_symmetry_Int_Tables_number   1
_chemical_formula_structural   Sr2NbH10
_chemical_formula_sum   'Sr2 Nb1 H10'
_cell_volume   146.83281018
_cell_formula_units_Z   1
loop_
 _symmetry_equiv_pos_site_id
 _symmetry_equiv_pos_as_xyz
  1  'x, y, z'
loop_
 _atom_site_type_symbol
 _atom_site_label
 _atom_site_symmetry_multiplicity
 _atom_site_fract_x
 _atom_site_fract_y
 _atom_site_fract_z
 _atom_site_occupancy
  Sr  Sr0  1  0.53796792  0.54278397  0.96031896  1
  Sr  Sr1  1  0.90155980  0.02239732  0.57063019  1
  Nb  Nb2  1  0.08562736  0.07234831  0.12797894  1
  H  H3  1  0.38123520  0.68588494  0.54743267  1
  H  H4  1  0.55976017  0.60898570  0.58538389  1
  H  H5  1  0.92576593  0.44786593  0.68434839  1
  H  H6  1  0.38747391  0.84310120  0.22470058  1
  H  H7  1  0.93255855  0.85216723  0.23701694  1
  H  H8  1  0.78780076  0.16333810  0.87273494  1
  H  H9  1  0.00039046  0.82760293  0.91200633  1
  H  H10  1  0.30061773  0.16825522  0.42013795  1
  H  H11  1  0.13776658  0.39082465  0.16227957  1
  H  H12  1  0.60964263  0.17240151  0.15920466  1
