# generated using pymatgen
data_SrNbH15
_symmetry_space_group_name_H-M   'P 1'
_cell_length_a   5.27534754
_cell_length_b   5.50687012
_cell_length_c   6.46659686
_cell_angle_alpha   63.96016185
_cell_angle_beta   71.26104779
_cell_angle_gamma   91.35990120
_symmetry_Int_Tables_number   1
_chemical_formula_structural   SrNbH15
_chemical_formula_sum   'Sr1 Nb1 H15'
_cell_volume   156.81650939
_cell_formula_units_Z   1
loop_
 _symmetry_equiv_pos_site_id
 _symmetry_equiv_pos_as_xyz
  1  'x, y, z'
loop_
 _atom_site_type_symbol
 _atom_site_label
 _atom_site_symmetry_multiplicity
 _atom_site_fract_x
 _atom_site_fract_y
 _atom_site_fract_z
 _atom_site_occupancy
  Sr  Sr0  1  0.68041434  0.37390591  0.31934471  1
  Nb  Nb1  1  0.09553438  0.81706328  0.53060193  1
  H  H2  1  0.94084290  0.76073279  0.85257439  1
  H  H3  1  0.03963629  0.58662825  0.40445871  1
  H  H4  1  0.50317373  0.18121802  0.85069138  1
  H  H5  1  0.34466964  0.95015843  0.61660680  1
  H  H6  1  0.98944669  0.13143408  0.52530319  1
  H  H7  1  0.64232724  0.15198971  0.79817933  1
  H  H8  1  0.96889369  0.97599637  0.28038532  1
  H  H9  1  0.70407541  0.68920958  0.71414978  1
  H  H10  1  0.70909536  0.76679384  0.57145245  1
  H  H11  1  0.32430313  0.47129794  0.06742516  1
  H  H12  1  0.33391820  0.62638109  0.00485951  1
  H  H13  1  0.07105777  0.40224442  0.69553788  1
  H  H14  1  0.11090950  0.43306831  0.79333253  1
  H  H15  1  0.42393418  0.73289581  0.39111735  1
  H  H16  1  0.33015454  0.10791618  0.26385258  1
