# generated using pymatgen
data_SrNbH6
_symmetry_space_group_name_H-M   'P 1'
_cell_length_a   3.20733947
_cell_length_b   4.18278240
_cell_length_c   8.93656576
_cell_angle_alpha   86.66019076
_cell_angle_beta   75.21722984
_cell_angle_gamma   48.99952339
_symmetry_Int_Tables_number   1
_chemical_formula_structural   SrNbH6
_chemical_formula_sum   'Sr1 Nb1 H6'
_cell_volume   86.50208561
_cell_formula_units_Z   1
loop_
 _symmetry_equiv_pos_site_id
 _symmetry_equiv_pos_as_xyz
  1  'x, y, z'
loop_
 _atom_site_type_symbol
 _atom_site_label
 _atom_site_symmetry_multiplicity
 _atom_site_fract_x
 _atom_site_fract_y
 _atom_site_fract_z
 _atom_site_occupancy
  Sr  Sr0  1  0.60461149  0.04917444  0.19434968  1
  Nb  Nb1  1  0.99569050  0.39728292  0.85075338  1
  H  H2  1  0.33647226  0.95649328  0.98084549  1
  H  H3  1  0.33720410  0.46340120  0.97975755  1
  H  H4  1  0.23758269  0.15274337  0.51716852  1
  H  H5  1  0.22609510  0.33497856  0.49646903  1
  H  H6  1  0.47719215  0.59936658  0.30789858  1
  H  H7  1  0.81943271  0.98098865  0.74169377  1
