# generated using pymatgen
data_SrNbH21
_symmetry_space_group_name_H-M   'P 1'
_cell_length_a   4.08755170
_cell_length_b   6.00734919
_cell_length_c   8.04794572
_cell_angle_alpha   80.25357701
_cell_angle_beta   83.57465750
_cell_angle_gamma   91.04538430
_symmetry_Int_Tables_number   1
_chemical_formula_structural   SrNbH21
_chemical_formula_sum   'Sr1 Nb1 H21'
_cell_volume   193.40478631
_cell_formula_units_Z   1
loop_
 _symmetry_equiv_pos_site_id
 _symmetry_equiv_pos_as_xyz
  1  'x, y, z'
loop_
 _atom_site_type_symbol
 _atom_site_label
 _atom_site_symmetry_multiplicity
 _atom_site_fract_x
 _atom_site_fract_y
 _atom_site_fract_z
 _atom_site_occupancy
  Sr  Sr0  1  0.65538584  0.80416848  0.52486595  1
  Nb  Nb1  1  0.17472826  0.31741763  0.47024760  1
  H  H2  1  0.06186940  0.17482974  0.92047008  1
  H  H3  1  0.91374762  0.62262405  0.12354830  1
  H  H4  1  0.92779703  0.67229311  0.03154399  1
  H  H5  1  0.69519989  0.98717861  0.19161757  1
  H  H6  1  0.59738491  0.97918985  0.84544978  1
  H  H7  1  0.54768180  0.87071915  0.90535293  1
  H  H8  1  0.55534690  0.90169506  0.19946831  1
  H  H9  1  0.53115269  0.41997411  0.86040599  1
  H  H10  1  0.58093273  0.46299312  0.93591654  1
  H  H11  1  0.09915643  0.68517034  0.76094326  1
  H  H12  1  0.10340924  0.81065065  0.76209180  1
  H  H13  1  0.07040188  0.10956710  0.00724774  1
  H  H14  1  0.24818572  0.27832369  0.21611292  1
  H  H15  1  0.16645646  0.03569445  0.40149536  1
  H  H16  1  0.20466587  0.63265187  0.38628910  1
  H  H17  1  0.91194859  0.13530455  0.63113136  1
  H  H18  1  0.69079037  0.33277493  0.40388522  1
  H  H19  1  0.27317263  0.41119899  0.20587894  1
  H  H20  1  0.36266518  0.42665913  0.63145609  1
  H  H21  1  0.36098931  0.12799730  0.62384504  1
  H  H22  1  0.91926826  0.43949706  0.62226813  1
