# generated using pymatgen
data_SrNb2H15
_symmetry_space_group_name_H-M   'P 1'
_cell_length_a   5.11356190
_cell_length_b   5.31606236
_cell_length_c   7.07546746
_cell_angle_alpha   106.89956110
_cell_angle_beta   98.21159420
_cell_angle_gamma   118.01359533
_symmetry_Int_Tables_number   1
_chemical_formula_structural   SrNb2H15
_chemical_formula_sum   'Sr1 Nb2 H15'
_cell_volume   153.32904683
_cell_formula_units_Z   1
loop_
 _symmetry_equiv_pos_site_id
 _symmetry_equiv_pos_as_xyz
  1  'x, y, z'
loop_
 _atom_site_type_symbol
 _atom_site_label
 _atom_site_symmetry_multiplicity
 _atom_site_fract_x
 _atom_site_fract_y
 _atom_site_fract_z
 _atom_site_occupancy
  Sr  Sr0  1  0.99428082  0.58603770  0.99606559  1
  Nb  Nb1  1  0.44480073  0.42661118  0.34165982  1
  Nb  Nb2  1  0.83056072  0.11354550  0.44377311  1
  H  H3  1  0.61073922  0.89067640  0.96195686  1
  H  H4  1  0.52644132  0.78330518  0.84592165  1
  H  H5  1  0.19248987  0.21292703  0.06983267  1
  H  H6  1  0.42813428  0.13406084  0.73163813  1
  H  H7  1  0.05931874  0.40103199  0.30648426  1
  H  H8  1  0.39575226  0.16987489  0.83407944  1
  H  H9  1  0.25977524  0.42119869  0.59059536  1
  H  H10  1  0.08012325  0.03392930  0.30061921  1
  H  H11  1  0.54454760  0.69806503  0.20334285  1
  H  H12  1  0.62859805  0.35356097  0.15181891  1
  H  H13  1  0.46304139  0.05966362  0.28611447  1
  H  H14  1  0.87429730  0.79324658  0.47392836  1
  H  H15  1  0.92307639  0.15624151  0.70955646  1
  H  H16  1  0.48783925  0.82460797  0.49776538  1
  H  H17  1  0.78313057  0.44212161  0.59060446  1
