# generated using pymatgen
data_SrNb4H15
_symmetry_space_group_name_H-M   'P 1'
_cell_length_a   4.87192605
_cell_length_b   4.84202386
_cell_length_c   7.94684593
_cell_angle_alpha   111.70031077
_cell_angle_beta   98.65241485
_cell_angle_gamma   81.08682343
_symmetry_Int_Tables_number   1
_chemical_formula_structural   SrNb4H15
_chemical_formula_sum   'Sr1 Nb4 H15'
_cell_volume   171.18862331
_cell_formula_units_Z   1
loop_
 _symmetry_equiv_pos_site_id
 _symmetry_equiv_pos_as_xyz
  1  'x, y, z'
loop_
 _atom_site_type_symbol
 _atom_site_label
 _atom_site_symmetry_multiplicity
 _atom_site_fract_x
 _atom_site_fract_y
 _atom_site_fract_z
 _atom_site_occupancy
  Sr  Sr0  1  0.08124759  0.00361987  0.93955048  1
  Nb  Nb1  1  0.49177523  0.35305396  0.76189433  1
  Nb  Nb2  1  0.52344489  0.68434166  0.54357670  1
  Nb  Nb3  1  0.02847591  0.10738060  0.37838072  1
  Nb  Nb4  1  0.64083500  0.64055033  0.18551254  1
  H  H5  1  0.50098532  0.71992805  0.96892338  1
  H  H6  1  0.81650379  0.46627625  0.95123310  1
  H  H7  1  0.50148323  0.28693561  0.99268313  1
  H  H8  1  0.23557519  0.04724034  0.61713768  1
  H  H9  1  0.28483609  0.71840711  0.33509321  1
  H  H10  1  0.64704840  0.37916657  0.32962720  1
  H  H11  1  0.26430062  0.65064313  0.68986680  1
  H  H12  1  0.32585064  0.99672527  0.22080021  1
  H  H13  1  0.81555425  0.41262413  0.60524591  1
  H  H14  1  0.78044429  0.85863029  0.42904557  1
  H  H15  1  0.37707313  0.30881382  0.48968587  1
  H  H16  1  0.82593931  0.92769086  0.15816524  1
  H  H17  1  0.99100192  0.36955676  0.23307089  1
  H  H18  1  0.71419304  0.97715061  0.72330778  1
  H  H19  1  0.15524314  0.43216476  0.84175226  1
