# generated using pymatgen
data_Sr2NbH9
_symmetry_space_group_name_H-M   'P 1'
_cell_length_a   6.13390425
_cell_length_b   6.12363400
_cell_length_c   5.88960850
_cell_angle_alpha   89.92055185
_cell_angle_beta   118.77742166
_cell_angle_gamma   122.56628918
_symmetry_Int_Tables_number   1
_chemical_formula_structural   Sr2NbH9
_chemical_formula_sum   'Sr2 Nb1 H9'
_cell_volume   153.14448367
_cell_formula_units_Z   1
loop_
 _symmetry_equiv_pos_site_id
 _symmetry_equiv_pos_as_xyz
  1  'x, y, z'
loop_
 _atom_site_type_symbol
 _atom_site_label
 _atom_site_symmetry_multiplicity
 _atom_site_fract_x
 _atom_site_fract_y
 _atom_site_fract_z
 _atom_site_occupancy
  Sr  Sr0  1  0.21171773  0.20095120  0.15643025  1
  Sr  Sr1  1  0.25420987  0.68336837  0.67815916  1
  Nb  Nb2  1  0.79386817  0.90797787  0.44728021  1
  H  H3  1  0.80865312  0.17494142  0.26300754  1
  H  H4  1  0.14076622  0.98622765  0.47455851  1
  H  H5  1  0.34608169  0.71246882  0.17707571  1
  H  H6  1  0.74621732  0.58899422  0.37660032  1
  H  H7  1  0.70777680  0.78583105  0.10937385  1
  H  H8  1  0.71795531  0.08739870  0.63988190  1
  H  H9  1  0.03723423  0.88354886  0.76821286  1
  H  H10  1  0.16214400  0.24797968  0.69880132  1
  H  H11  1  0.57211054  0.65584315  0.56457837  1
