# generated using pymatgen
data_Sr(NbH9)2
_symmetry_space_group_name_H-M   'P 1'
_cell_length_a   3.63577605
_cell_length_b   6.37452064
_cell_length_c   7.44160701
_cell_angle_alpha   78.87525525
_cell_angle_beta   102.99231745
_cell_angle_gamma   90.71931681
_symmetry_Int_Tables_number   1
_chemical_formula_structural   Sr(NbH9)2
_chemical_formula_sum   'Sr1 Nb2 H18'
_cell_volume   164.81041492
_cell_formula_units_Z   1
loop_
 _symmetry_equiv_pos_site_id
 _symmetry_equiv_pos_as_xyz
  1  'x, y, z'
loop_
 _atom_site_type_symbol
 _atom_site_label
 _atom_site_symmetry_multiplicity
 _atom_site_fract_x
 _atom_site_fract_y
 _atom_site_fract_z
 _atom_site_occupancy
  Sr  Sr0  1  0.11686896  0.99088140  0.37763512  1
  Nb  Nb1  1  0.74747879  0.62105937  0.72796103  1
  Nb  Nb2  1  0.77658219  0.13449823  0.76911610  1
  H  H3  1  0.28149693  0.16324098  0.63755485  1
  H  H4  1  0.40573530  0.09101342  0.90165368  1
  H  H5  1  0.50640814  0.23150008  0.12085237  1
  H  H6  1  0.54265243  0.27158860  0.21409474  1
  H  H7  1  0.44447595  0.65291343  0.90391922  1
  H  H8  1  0.42604387  0.51657793  0.89621185  1
  H  H9  1  0.53646815  0.75557203  0.21066940  1
  H  H10  1  0.52002876  0.84045909  0.12030751  1
  H  H11  1  0.05551963  0.48681268  0.23973500  1
  H  H12  1  0.10335526  0.46795718  0.34571703  1
  H  H13  1  0.90549761  0.36175205  0.90777526  1
  H  H14  1  0.70673905  0.90866086  0.61979199  1
  H  H15  1  0.69967521  0.18210201  0.49775413  1
  H  H16  1  0.72493752  0.39303763  0.60530479  1
  H  H17  1  0.64352954  0.68970747  0.47438742  1
  H  H18  1  0.91064639  0.79695494  0.90026651  1
  H  H19  1  0.95415770  0.05017111  0.02689609  1
  H  H20  1  0.22286962  0.64198252  0.61216789  1
