# generated using pymatgen
data_Sr4NbH15
_symmetry_space_group_name_H-M   'P 1'
_cell_length_a   6.05013674
_cell_length_b   7.00158231
_cell_length_c   7.22012223
_cell_angle_alpha   98.44812356
_cell_angle_beta   116.14159087
_cell_angle_gamma   113.47574561
_symmetry_Int_Tables_number   1
_chemical_formula_structural   Sr4NbH15
_chemical_formula_sum   'Sr4 Nb1 H15'
_cell_volume   231.72592235
_cell_formula_units_Z   1
loop_
 _symmetry_equiv_pos_site_id
 _symmetry_equiv_pos_as_xyz
  1  'x, y, z'
loop_
 _atom_site_type_symbol
 _atom_site_label
 _atom_site_symmetry_multiplicity
 _atom_site_fract_x
 _atom_site_fract_y
 _atom_site_fract_z
 _atom_site_occupancy
  Sr  Sr0  1  0.06200852  0.27507056  0.25558645  1
  Sr  Sr1  1  0.58634525  0.47424543  0.07231690  1
  Sr  Sr2  1  0.80495780  0.34360903  0.64707088  1
  Sr  Sr3  1  0.09205614  0.89095787  0.60364603  1
  Nb  Nb4  1  0.31482797  0.85282102  0.15590457  1
  H  H5  1  0.96159104  0.51215999  0.42851805  1
  H  H6  1  0.58558365  0.52135207  0.42759003  1
  H  H7  1  0.54233208  0.72080162  0.67292353  1
  H  H8  1  0.47211153  0.71922254  0.73840547  1
  H  H9  1  0.21852408  0.54338103  0.07162960  1
  H  H10  1  0.17961356  0.02202340  0.00071827  1
  H  H11  1  0.26885475  0.03714846  0.34316189  1
  H  H12  1  0.91608918  0.67715846  0.94990370  1
  H  H13  1  0.14518312  0.70444326  0.28573996  1
  H  H14  1  0.60614798  0.14814289  0.25091343  1
  H  H15  1  0.59176884  0.92751692  0.45522199  1
  H  H16  1  0.25813964  0.74581434  0.87764970  1
  H  H17  1  0.64724555  0.85845938  0.19130196  1
  H  H18  1  0.19263212  0.27787087  0.65874863  1
  H  H19  1  0.63677820  0.19000385  0.88109296  1
