# generated using pymatgen
data_Sr(Nb2H7)2
_symmetry_space_group_name_H-M   'P 1'
_cell_length_a   4.82883332
_cell_length_b   5.40883053
_cell_length_c   6.32621424
_cell_angle_alpha   88.54968336
_cell_angle_beta   90.47125496
_cell_angle_gamma   91.41408021
_symmetry_Int_Tables_number   1
_chemical_formula_structural   Sr(Nb2H7)2
_chemical_formula_sum   'Sr1 Nb4 H14'
_cell_volume   165.12221046
_cell_formula_units_Z   1
loop_
 _symmetry_equiv_pos_site_id
 _symmetry_equiv_pos_as_xyz
  1  'x, y, z'
loop_
 _atom_site_type_symbol
 _atom_site_label
 _atom_site_symmetry_multiplicity
 _atom_site_fract_x
 _atom_site_fract_y
 _atom_site_fract_z
 _atom_site_occupancy
  Sr  Sr0  1  0.59319923  0.82853560  0.86889106  1
  Nb  Nb1  1  0.60141257  0.48638393  0.38635574  1
  Nb  Nb2  1  0.09755719  0.30430676  0.64417292  1
  Nb  Nb3  1  0.09532044  0.29468488  0.12698075  1
  Nb  Nb4  1  0.10223946  0.81201973  0.37556159  1
  H  H5  1  0.29771368  0.20130865  0.39606256  1
  H  H6  1  0.65966047  0.82802861  0.41505061  1
  H  H7  1  0.88940876  0.59957211  0.58666558  1
  H  H8  1  0.98726939  0.49624650  0.88312165  1
  H  H9  1  0.72090696  0.22736553  0.58823431  1
  H  H10  1  0.97754579  0.11346168  0.88484416  1
  H  H11  1  0.35629744  0.29645710  0.88471244  1
  H  H12  1  0.33137518  0.59351684  0.58953699  1
  H  H13  1  0.33300420  0.60691046  0.18044551  1
  H  H14  1  0.70408818  0.30239411  0.14323113  1
  H  H15  1  0.88452624  0.61780518  0.18350842  1
  H  H16  1  0.88079758  0.01420203  0.19084678  1
  H  H17  1  0.16081431  0.95446931  0.64741502  1
  H  H18  1  0.29518093  0.99652500  0.14446079  1
