# generated using pymatgen
data_Sr(Nb2H7)2
_symmetry_space_group_name_H-M   'P 1'
_cell_length_a   4.41362886
_cell_length_b   5.69136675
_cell_length_c   7.23147148
_cell_angle_alpha   113.14480855
_cell_angle_beta   91.79923285
_cell_angle_gamma   90.04678299
_symmetry_Int_Tables_number   1
_chemical_formula_structural   Sr(Nb2H7)2
_chemical_formula_sum   'Sr1 Nb4 H14'
_cell_volume   166.93173646
_cell_formula_units_Z   1
loop_
 _symmetry_equiv_pos_site_id
 _symmetry_equiv_pos_as_xyz
  1  'x, y, z'
loop_
 _atom_site_type_symbol
 _atom_site_label
 _atom_site_symmetry_multiplicity
 _atom_site_fract_x
 _atom_site_fract_y
 _atom_site_fract_z
 _atom_site_occupancy
  Sr  Sr0  1  0.63932734  0.05785238  0.11733422  1
  Nb  Nb1  1  0.64914093  0.55858363  0.61697175  1
  Nb  Nb2  1  0.64889566  0.05681432  0.61691543  1
  Nb  Nb3  1  0.15901702  0.67314878  0.34757362  1
  Nb  Nb4  1  0.14284031  0.43755640  0.87691654  1
  H  H5  1  0.39224190  0.69702055  0.85027999  1
  H  H6  1  0.95263403  0.10941076  0.82750929  1
  H  H7  1  0.95357714  0.71596506  0.82731488  1
  H  H8  1  0.39136601  0.15126995  0.84996178  1
  H  H9  1  0.87865275  0.94175085  0.37898925  1
  H  H10  1  0.05764924  0.74298744  0.11154842  1
  H  H11  1  0.36451238  0.98675527  0.38923615  1
  H  H12  1  0.96927351  0.29913908  0.59987468  1
  H  H13  1  0.70481457  0.42083590  0.84368369  1
  H  H14  1  0.36379737  0.40130249  0.38970345  1
  H  H15  1  0.87703735  0.43652064  0.37851374  1
  H  H16  1  0.33225881  0.80821564  0.61781927  1
  H  H17  1  0.05670946  0.36743408  0.11162318  1
  H  H18  1  0.43457223  0.56324279  0.12813368  1
