# generated using pymatgen
data_Sr(NbH3)5
_symmetry_space_group_name_H-M   'P 1'
_cell_length_a   4.85960665
_cell_length_b   7.11101571
_cell_length_c   5.97758207
_cell_angle_alpha   68.73129187
_cell_angle_beta   90.06292165
_cell_angle_gamma   92.23501895
_symmetry_Int_Tables_number   1
_chemical_formula_structural   Sr(NbH3)5
_chemical_formula_sum   'Sr1 Nb5 H15'
_cell_volume   192.33112068
_cell_formula_units_Z   1
loop_
 _symmetry_equiv_pos_site_id
 _symmetry_equiv_pos_as_xyz
  1  'x, y, z'
loop_
 _atom_site_type_symbol
 _atom_site_label
 _atom_site_symmetry_multiplicity
 _atom_site_fract_x
 _atom_site_fract_y
 _atom_site_fract_z
 _atom_site_occupancy
  Sr  Sr0  1  0.46839571  0.55771611  0.15019310  1
  Nb  Nb1  1  0.92599976  0.32974288  0.85642907  1
  Nb  Nb2  1  0.40180777  0.06213014  0.70982586  1
  Nb  Nb3  1  0.93839293  0.21410246  0.44764133  1
  Nb  Nb4  1  0.97573591  0.75806226  0.55845290  1
  Nb  Nb5  1  0.43535517  0.02114038  0.21615872  1
  H  H6  1  0.98492260  0.43676619  0.15516887  1
  H  H7  1  0.30345797  0.75460553  0.39265025  1
  H  H8  1  0.03231161  0.46852990  0.51843048  1
  H  H9  1  0.30731873  0.87853218  0.01780131  1
  H  H10  1  0.04134501  0.91030273  0.75252365  1
  H  H11  1  0.70394593  0.05691267  0.94613886  1
  H  H12  1  0.71250288  0.56819215  0.78441890  1
  H  H13  1  0.32978531  0.21156410  0.36810143  1
  H  H14  1  0.18945027  0.55753436  0.79729636  1
  H  H15  1  0.64757084  0.31154049  0.60662258  1
  H  H16  1  0.04789140  0.01451256  0.26641630  1
  H  H17  1  0.68651996  0.96501721  0.52357077  1
  H  H18  1  0.68830661  0.25133208  0.14900829  1
  H  H19  1  0.71968387  0.80393741  0.29090544  1
  H  H20  1  0.29738676  0.22070421  0.91493752  1
