# generated using pymatgen
data_Sr2NbH12
_symmetry_space_group_name_H-M   'P 1'
_cell_length_a   6.01669910
_cell_length_b   5.70177978
_cell_length_c   6.77014227
_cell_angle_alpha   91.07075545
_cell_angle_beta   122.35004223
_cell_angle_gamma   117.30639910
_symmetry_Int_Tables_number   1
_chemical_formula_structural   Sr2NbH12
_chemical_formula_sum   'Sr2 Nb1 H12'
_cell_volume   163.19241417
_cell_formula_units_Z   1
loop_
 _symmetry_equiv_pos_site_id
 _symmetry_equiv_pos_as_xyz
  1  'x, y, z'
loop_
 _atom_site_type_symbol
 _atom_site_label
 _atom_site_symmetry_multiplicity
 _atom_site_fract_x
 _atom_site_fract_y
 _atom_site_fract_z
 _atom_site_occupancy
  Sr  Sr0  1  0.63239853  0.56681302  0.56560796  1
  Sr  Sr1  1  0.65418035  0.08437315  0.02701812  1
  Nb  Nb2  1  0.09996089  0.79358363  0.36325020  1
  H  H3  1  0.18056451  0.18933446  0.97884239  1
  H  H4  1  0.15273004  0.19187090  0.85655571  1
  H  H5  1  0.15590803  0.10692847  0.26198587  1
  H  H6  1  0.31197099  0.68191572  0.61667974  1
  H  H7  1  0.14340611  0.93504440  0.63803440  1
  H  H8  1  0.16193074  0.58689352  0.84453032  1
  H  H9  1  0.16725236  0.61708331  0.95937746  1
  H  H10  1  0.75987537  0.80336611  0.28382222  1
  H  H11  1  0.77676428  0.61954304  0.01023320  1
  H  H12  1  0.80420404  0.45384440  0.34112900  1
  H  H13  1  0.16366922  0.55147585  0.24166793  1
  H  H14  1  0.54341453  0.07625701  0.58505447  1
