# generated using pymatgen
data_SrNbH6
_symmetry_space_group_name_H-M   'P 1'
_cell_length_a   5.65304913
_cell_length_b   3.51636979
_cell_length_c   3.51674104
_cell_angle_alpha   90.50768265
_cell_angle_beta   89.44182262
_cell_angle_gamma   90.36566992
_symmetry_Int_Tables_number   1
_chemical_formula_structural   SrNbH6
_chemical_formula_sum   'Sr1 Nb1 H6'
_cell_volume   69.89907392
_cell_formula_units_Z   1
loop_
 _symmetry_equiv_pos_site_id
 _symmetry_equiv_pos_as_xyz
  1  'x, y, z'
loop_
 _atom_site_type_symbol
 _atom_site_label
 _atom_site_symmetry_multiplicity
 _atom_site_fract_x
 _atom_site_fract_y
 _atom_site_fract_z
 _atom_site_occupancy
  Sr  Sr0  1  0.95897147  0.48961159  0.04843350  1
  Nb  Nb1  1  0.45877118  0.02117110  0.51714617  1
  H  H2  1  0.12606323  0.96578286  0.57535967  1
  H  H3  1  0.28482311  0.00279588  0.07287020  1
  H  H4  1  0.63214491  0.47197928  0.53905763  1
  H  H5  1  0.28498930  0.46694695  0.53213075  1
  H  H6  1  0.79319115  0.97665483  0.55913297  1
  H  H7  1  0.63197964  0.00212949  0.06503610  1
