# generated using pymatgen
data_SrNbH18
_symmetry_space_group_name_H-M   'P 1'
_cell_length_a   3.55263172
_cell_length_b   8.08232026
_cell_length_c   6.12188996
_cell_angle_alpha   87.16063133
_cell_angle_beta   89.13512990
_cell_angle_gamma   81.79859380
_symmetry_Int_Tables_number   1
_chemical_formula_structural   SrNbH18
_chemical_formula_sum   'Sr1 Nb1 H18'
_cell_volume   173.76385071
_cell_formula_units_Z   1
loop_
 _symmetry_equiv_pos_site_id
 _symmetry_equiv_pos_as_xyz
  1  'x, y, z'
loop_
 _atom_site_type_symbol
 _atom_site_label
 _atom_site_symmetry_multiplicity
 _atom_site_fract_x
 _atom_site_fract_y
 _atom_site_fract_z
 _atom_site_occupancy
  Sr  Sr0  1  0.47601364  0.34283389  0.12125424  1
  Nb  Nb1  1  -0.02974957  0.26633506  0.63390141  1
  H  H2  1  0.72892009  0.70780633  0.57929713  1
  H  H3  1  0.65973801  0.79870297  0.56087766  1
  H  H4  1  0.29739415  0.78835736  0.93988199  1
  H  H5  1  0.32900349  0.72875753  0.84911010  1
  H  H6  1  0.17783241  0.01340549  0.63109699  1
  H  H7  1  0.95068468  0.01317490  0.63313207  1
  H  H8  1  0.03206457  0.20054951  0.93237211  1
  H  H9  1  0.83308363  0.63470410  0.06404029  1
  H  H10  1  0.83967660  0.62480826  0.18865369  1
  H  H11  1  0.95554581  0.45755030  0.45690103  1
  H  H12  1  0.02094578  0.20971832  0.33832082  1
  H  H13  1  0.23016462  0.76848240  0.34786259  1
  H  H14  1  0.15587730  0.84151266  0.27177648  1
  H  H15  1  0.66439859  0.01089579  0.09174627  1
  H  H16  1  0.55457592  0.00565500  0.19645984  1
  H  H17  1  0.50257312  0.35370893  0.52313907  1
  H  H18  1  0.55403281  0.19029076  0.76405020  1
  H  H19  1  0.92657834  0.45598746  0.79905802  1
