# generated using pymatgen
data_H2
_symmetry_space_group_name_H-M   'P 1'
_cell_length_a   7.50686446
_cell_length_b   5.20211353
_cell_length_c   5.94416752
_cell_angle_alpha   82.10514096
_cell_angle_beta   89.31761616
_cell_angle_gamma   102.32284055
_symmetry_Int_Tables_number   1
_chemical_formula_structural   H2
_chemical_formula_sum   H25
_cell_volume   224.42750754
_cell_formula_units_Z   12
loop_
 _symmetry_equiv_pos_site_id
 _symmetry_equiv_pos_as_xyz
  1  'x, y, z'
loop_
 _atom_site_type_symbol
 _atom_site_label
 _atom_site_symmetry_multiplicity
 _atom_site_fract_x
 _atom_site_fract_y
 _atom_site_fract_z
 _atom_site_occupancy
  H  H0  1  0.59542789  0.15936711  0.99312464  1
  H  H1  1  0.63006318  0.25373480  0.07446822  1
  H  H2  1  -0.00933269  0.53390326  0.72300773  1
  H  H3  1  0.88952685  0.49793631  0.74490940  1
  H  H4  1  0.24030969  0.89526047  0.94344658  1
  H  H5  1  0.30620671  0.81064574  0.92582502  1
  H  H6  1  0.54619416  0.61293997  0.75778175  1
  H  H7  1  0.60881909  0.72574968  0.68363545  1
  H  H8  1  0.20183191  0.34370763  0.00962551  1
  H  H9  1  0.29487167  0.31723439  0.02319474  1
  H  H10  1  0.91456331  0.92716876  0.87509600  1
  H  H11  1  0.90179044  0.03465612  0.94043308  1
  H  H12  1  0.52972474  0.66847150  0.23099813  1
  H  H13  1  0.62488128  0.68285268  0.18594104  1
  H  H14  1  0.25818935  0.94535622  0.46980173  1
  H  H15  1  0.25882795  0.74851931  0.46853562  1
  H  H16  1  0.25725452  0.54419900  0.47698024  1
  H  H17  1  0.25505417  0.34312592  0.48188888  1
  H  H18  1  0.25558200  0.14520610  0.47739034  1
  H  H19  1  0.92814458  0.95575907  0.43313817  1
  H  H20  1  0.84853372  0.99469363  0.37546451  1
  H  H21  1  0.64992932  0.17522816  0.54518167  1
  H  H22  1  0.59039858  0.27279420  0.52272644  1
  H  H23  1  0.91249243  0.49499508  0.28184504  1
  H  H24  1  0.96961313  0.55111490  0.17576503  1
