# generated using pymatgen
data_Sr3Nb3H16
_symmetry_space_group_name_H-M   'P 1'
_cell_length_a   6.60058134
_cell_length_b   6.74439284
_cell_length_c   6.63920083
_cell_angle_alpha   61.72114001
_cell_angle_beta   61.02273384
_cell_angle_gamma   60.32550548
_symmetry_Int_Tables_number   1
_chemical_formula_structural   Sr3Nb3H16
_chemical_formula_sum   'Sr3 Nb3 H16'
_cell_volume   213.74423430
_cell_formula_units_Z   1
loop_
 _symmetry_equiv_pos_site_id
 _symmetry_equiv_pos_as_xyz
  1  'x, y, z'
loop_
 _atom_site_type_symbol
 _atom_site_label
 _atom_site_symmetry_multiplicity
 _atom_site_fract_x
 _atom_site_fract_y
 _atom_site_fract_z
 _atom_site_occupancy
  Sr  Sr0  1  0.24612038  0.14239838  0.10752860  1
  Sr  Sr1  1  0.64421202  0.00856023  0.47547435  1
  Sr  Sr2  1  0.87973466  0.26107222  0.74503725  1
  Nb  Nb3  1  0.23112425  0.63686423  0.10864722  1
  Nb  Nb4  1  0.71752405  0.66608788  0.09404220  1
  Nb  Nb5  1  0.24705918  0.62403751  0.61296461  1
  H  H6  1  0.81961303  0.32866434  0.14206831  1
  H  H7  1  0.40847632  0.46809809  0.87291956  1
  H  H8  1  0.30498020  0.30697012  0.30430373  1
  H  H9  1  0.49001652  0.77254097  0.92399175  1
  H  H10  1  0.69716547  0.94726337  0.84359428  1
  H  H11  1  0.68082444  0.94942882  0.12340663  1
  H  H12  1  0.94000750  0.53251194  0.27571906  1
  H  H13  1  0.05918420  0.65121510  0.44075046  1
  H  H14  1  0.91104904  0.60579158  0.79005056  1
  H  H15  1  0.03257466  0.95861761  0.08813880  1
  H  H16  1  0.43897173  0.54785981  0.29008079  1
  H  H17  1  0.56683926  0.39835254  0.55616267  1
  H  H18  1  0.48209373  0.77689749  0.40516758  1
  H  H19  1  0.22128406  0.82224600  0.78098519  1
  H  H20  1  0.05119265  0.95964454  0.51577689  1
  H  H21  1  0.25911866  0.31068221  0.69787351  1
