# generated using pymatgen
data_Sr2NbH9
_symmetry_space_group_name_H-M   'P 1'
_cell_length_a   5.97351170
_cell_length_b   5.97287118
_cell_length_c   6.00749301
_cell_angle_alpha   90.00521920
_cell_angle_beta   119.80920618
_cell_angle_gamma   119.98840101
_symmetry_Int_Tables_number   1
_chemical_formula_structural   Sr2NbH9
_chemical_formula_sum   'Sr2 Nb1 H9'
_cell_volume   152.01754654
_cell_formula_units_Z   1
loop_
 _symmetry_equiv_pos_site_id
 _symmetry_equiv_pos_as_xyz
  1  'x, y, z'
loop_
 _atom_site_type_symbol
 _atom_site_label
 _atom_site_symmetry_multiplicity
 _atom_site_fract_x
 _atom_site_fract_y
 _atom_site_fract_z
 _atom_site_occupancy
  Sr  Sr0  1  0.80570996  0.04176378  0.99137519  1
  Sr  Sr1  1  0.77158918  0.52465622  0.44023027  1
  Nb  Nb2  1  0.29149329  0.28556999  0.71788421  1
  H  H3  1  0.26139823  0.38270480  0.99442853  1
  H  H4  1  0.69369255  0.58868523  0.99381919  1
  H  H5  1  0.46774630  0.15634914  0.99437212  1
  H  H6  1  0.31592740  0.42585159  0.44596722  1
  H  H7  1  0.87564416  0.16760999  0.44608328  1
  H  H8  1  0.13365644  0.98561040  0.44565439  1
  H  H9  1  0.99301718  0.97197220  0.72574100  1
  H  H10  1  0.60837616  0.29796831  0.72503201  1
  H  H11  1  0.28301315  0.58805236  0.72545159  1
