# generated using pymatgen
data_H2
_symmetry_space_group_name_H-M   'P 1'
_cell_length_a   5.01598685
_cell_length_b   5.78319129
_cell_length_c   7.88794405
_cell_angle_alpha   108.67257135
_cell_angle_beta   98.41051156
_cell_angle_gamma   89.13335594
_symmetry_Int_Tables_number   1
_chemical_formula_structural   H2
_chemical_formula_sum   H22
_cell_volume   214.31864070
_cell_formula_units_Z   11
loop_
 _symmetry_equiv_pos_site_id
 _symmetry_equiv_pos_as_xyz
  1  'x, y, z'
loop_
 _atom_site_type_symbol
 _atom_site_label
 _atom_site_symmetry_multiplicity
 _atom_site_fract_x
 _atom_site_fract_y
 _atom_site_fract_z
 _atom_site_occupancy
  H  H0  1  0.03641494  0.08251667  0.72794504  1
  H  H1  1  0.62413956  0.32373754  0.75134695  1
  H  H2  1  0.50950784  0.24589012  0.75663322  1
  H  H3  1  0.13198626  0.01439786  0.77540817  1
  H  H4  1  0.14030351  0.60115680  0.51012307  1
  H  H5  1  0.20897444  0.57504530  0.42796923  1
  H  H6  1  0.03313557  0.61517552  0.82099760  1
  H  H7  1  0.57998966  0.78570547  0.81520425  1
  H  H8  1  0.58696008  0.78801937  0.72152035  1
  H  H9  1  0.16234018  0.54888435  0.82467750  1
  H  H10  1  0.73588268  0.81318332  0.44230015  1
  H  H11  1  0.61977521  0.89694499  0.45075612  1
  H  H12  1  0.24230262  0.91394064  0.22063427  1
  H  H13  1  0.83148087  0.64564249  0.08445461  1
  H  H14  1  0.70133210  0.70058002  0.11065132  1
  H  H15  1  0.23159986  0.40044951  0.10627908  1
  H  H16  1  0.38182247  0.41793027  0.12958984  1
  H  H17  1  0.74320982  0.34291713  0.41556829  1
  H  H18  1  0.61176866  0.33941803  0.44935142  1
  H  H19  1  0.77399731  0.18068508  0.03622979  1
  H  H20  1  0.81821628  0.13882210  0.11619324  1
  H  H21  1  0.29378008  0.00851140  0.18586749  1
