# generated using pymatgen
data_H2
_symmetry_space_group_name_H-M   'P 1'
_cell_length_a   3.13830031
_cell_length_b   7.65733236
_cell_length_c   9.35865869
_cell_angle_alpha   93.03654580
_cell_angle_beta   80.41355370
_cell_angle_gamma   89.31528013
_symmetry_Int_Tables_number   1
_chemical_formula_structural   H2
_chemical_formula_sum   H25
_cell_volume   221.39676857
_cell_formula_units_Z   12
loop_
 _symmetry_equiv_pos_site_id
 _symmetry_equiv_pos_as_xyz
  1  'x, y, z'
loop_
 _atom_site_type_symbol
 _atom_site_label
 _atom_site_symmetry_multiplicity
 _atom_site_fract_x
 _atom_site_fract_y
 _atom_site_fract_z
 _atom_site_occupancy
  H  H0  1  0.63320588  0.16777754  0.18397304  1
  H  H1  1  0.21646899  0.77744758  0.10624698  1
  H  H2  1  0.55810243  0.57741180  0.20941129  1
  H  H3  1  0.11373649  0.69316487  0.43868666  1
  H  H4  1  0.05006894  0.29097481  0.41493926  1
  H  H5  1  0.48576403  0.83073750  0.70486950  1
  H  H6  1  0.01585723  0.77309195  0.41354159  1
  H  H7  1  0.56072148  0.07123318  0.44079628  1
  H  H8  1  0.49955434  0.99565176  0.48729899  1
  H  H9  1  0.68673741  0.49444429  0.20176980  1
  H  H10  1  0.00668096  0.37296791  0.37970734  1
  H  H11  1  0.69538275  0.96177971  0.92946524  1
  H  H12  1  0.07903329  0.85913783  0.12052838  1
  H  H13  1  0.23232344  0.27866699  0.00962397  1
  H  H14  1  0.75521791  0.21859254  0.70801798  1
  H  H15  1  0.79357102  0.04928546  0.91523679  1
  H  H16  1  0.46190266  0.48215674  0.62466802  1
  H  H17  1  0.42110906  0.21746470  0.71151444  1
  H  H18  1  0.08892047  0.21910103  0.70796255  1
  H  H19  1  0.82987605  0.58179037  0.83765172  1
  H  H20  1  0.86933728  0.63126908  0.90546257  1
  H  H21  1  0.53196079  0.56568792  0.59020753  1
  H  H22  1  0.51587141  0.08650648  0.20722665  1
  H  H23  1  0.13631181  0.36125972  0.98785901  1
  H  H24  1  0.27675489  0.88094827  0.71128344  1
