# generated using pymatgen
data_SrNbH6
_symmetry_space_group_name_H-M   'P 1'
_cell_length_a   3.19450712
_cell_length_b   3.19203611
_cell_length_c   11.66768645
_cell_angle_alpha   87.37897814
_cell_angle_beta   98.67804085
_cell_angle_gamma   106.81757478
_symmetry_Int_Tables_number   1
_chemical_formula_structural   SrNbH6
_chemical_formula_sum   'Sr1 Nb1 H6'
_cell_volume   112.58264501
_cell_formula_units_Z   1
loop_
 _symmetry_equiv_pos_site_id
 _symmetry_equiv_pos_as_xyz
  1  'x, y, z'
loop_
 _atom_site_type_symbol
 _atom_site_label
 _atom_site_symmetry_multiplicity
 _atom_site_fract_x
 _atom_site_fract_y
 _atom_site_fract_z
 _atom_site_occupancy
  Sr  Sr0  1  0.09757535  0.81845515  0.33807101  1
  Nb  Nb1  1  0.37893345  0.39807482  0.08687453  1
  H  H2  1  0.93140718  0.83758618  0.61347330  1
  H  H3  1  0.56130746  0.40437089  0.43987087  1
  H  H4  1  0.09008639  0.06715119  0.61235877  1
  H  H5  1  0.96483468  0.78083670  0.03268050  1
  H  H6  1  0.02097274  0.36744311  0.78787692  1
  H  H7  1  0.93255073  0.39192597  0.84057809  1
