# generated using pymatgen
data_H2
_symmetry_space_group_name_H-M   'P 1'
_cell_length_a   4.66270332
_cell_length_b   4.97383817
_cell_length_c   5.65920673
_cell_angle_alpha   65.36693307
_cell_angle_beta   88.77919206
_cell_angle_gamma   87.51160108
_symmetry_Int_Tables_number   1
_chemical_formula_structural   H2
_chemical_formula_sum   H18
_cell_volume   119.18851157
_cell_formula_units_Z   9
loop_
 _symmetry_equiv_pos_site_id
 _symmetry_equiv_pos_as_xyz
  1  'x, y, z'
loop_
 _atom_site_type_symbol
 _atom_site_label
 _atom_site_symmetry_multiplicity
 _atom_site_fract_x
 _atom_site_fract_y
 _atom_site_fract_z
 _atom_site_occupancy
  H  H0  1  0.66289736  0.90865708  0.28040493  1
  H  H1  1  0.60083614  0.04815867  0.17807764  1
  H  H2  1  0.61828592  0.40008593  0.27345186  1
  H  H3  1  0.59737788  0.55964295  0.18385840  1
  H  H4  1  0.60344967  0.05209358  0.74427844  1
  H  H5  1  0.60365671  0.92171752  0.71134656  1
  H  H6  1  0.11328790  0.32356734  0.47790878  1
  H  H7  1  0.11342708  0.12145760  0.47670625  1
  H  H8  1  0.12134000  0.92413198  0.47818244  1
  H  H9  1  0.12126464  0.52154384  0.47719090  1
  H  H10  1  0.12644707  0.72166788  0.47760177  1
  H  H11  1  0.68506899  0.47733363  0.78108903  1
  H  H12  1  0.58138800  0.49470935  0.67582346  1
  H  H13  1  0.12698909  0.27139110  0.97934255  1
  H  H14  1  0.12178673  0.47203981  0.97906476  1
  H  H15  1  0.12256021  0.07306782  0.97770771  1
  H  H16  1  0.11376680  0.67426881  0.97783843  1
  H  H17  1  0.11434382  0.87013211  0.97865309  1
