# generated using pymatgen
data_SrNbH16
_symmetry_space_group_name_H-M   'P 1'
_cell_length_a   4.75314072
_cell_length_b   7.16067700
_cell_length_c   5.54756735
_cell_angle_alpha   116.96916772
_cell_angle_beta   110.03759409
_cell_angle_gamma   77.77574964
_symmetry_Int_Tables_number   1
_chemical_formula_structural   SrNbH16
_chemical_formula_sum   'Sr1 Nb1 H16'
_cell_volume   157.73697585
_cell_formula_units_Z   1
loop_
 _symmetry_equiv_pos_site_id
 _symmetry_equiv_pos_as_xyz
  1  'x, y, z'
loop_
 _atom_site_type_symbol
 _atom_site_label
 _atom_site_symmetry_multiplicity
 _atom_site_fract_x
 _atom_site_fract_y
 _atom_site_fract_z
 _atom_site_occupancy
  Sr  Sr0  1  0.81726970  0.51524979  0.53478718  1
  Nb  Nb1  1  0.57566535  0.21628609  0.77535132  1
  H  H2  1  0.38513880  0.02058223  0.37492088  1
  H  H3  1  0.23967962  0.09733850  0.40972634  1
  H  H4  1  0.76756432  0.19057920  0.52549466  1
  H  H5  1  0.20843289  0.81542045  0.92572233  1
  H  H6  1  0.30320897  0.71761013  0.93342157  1
  H  H7  1  0.73596166  0.93217016  0.66804859  1
  H  H8  1  0.43081614  0.43564143  0.05461792  1
  H  H9  1  0.80176101  0.78035074  0.09735293  1
  H  H10  1  0.42004650  0.08115395  0.94859546  1
  H  H11  1  0.25574372  0.13111529  0.88728388  1
  H  H12  1  0.20903891  0.75043293  0.47919026  1
  H  H13  1  0.20957693  0.64990028  0.34718432  1
  H  H14  1  0.80067918  0.43723752  0.93987176  1
  H  H15  1  0.84438215  0.21422491  0.10240911  1
  H  H16  1  0.79534728  0.87729658  0.07519211  1
  H  H17  1  0.37350685  0.40711380  0.61849035  1
