# generated using pymatgen
data_H2
_symmetry_space_group_name_H-M   'P 1'
_cell_length_a   2.91551305
_cell_length_b   6.64695138
_cell_length_c   7.06556042
_cell_angle_alpha   74.19644620
_cell_angle_beta   97.20133150
_cell_angle_gamma   95.33924769
_symmetry_Int_Tables_number   1
_chemical_formula_structural   H2
_chemical_formula_sum   H15
_cell_volume   130.46137469
_cell_formula_units_Z   7
loop_
 _symmetry_equiv_pos_site_id
 _symmetry_equiv_pos_as_xyz
  1  'x, y, z'
loop_
 _atom_site_type_symbol
 _atom_site_label
 _atom_site_symmetry_multiplicity
 _atom_site_fract_x
 _atom_site_fract_y
 _atom_site_fract_z
 _atom_site_occupancy
  H  H0  1  0.37265940  0.05254857  0.70957966  1
  H  H1  1  0.70481247  0.05187466  0.70689823  1
  H  H2  1  0.04068375  0.05388954  0.70708968  1
  H  H3  1  0.76701193  0.44132778  0.17223459  1
  H  H4  1  0.62555034  0.49203797  0.07752956  1
  H  H5  1  -0.00237036  0.47634274  0.78068155  1
  H  H6  1  0.13244270  0.38987441  0.84775818  1
  H  H7  1  0.08627727  0.06673371  0.26138224  1
  H  H8  1  0.23942828  0.16537674  0.25006671  1
  H  H9  1  0.45969725  0.86740241  0.09553139  1
  H  H10  1  0.82236703  0.82049546  0.50140387  1
  H  H11  1  0.29645092  0.38386470  0.48633954  1
  H  H12  1  0.69961381  0.72119197  0.48640732  1
  H  H13  1  0.22761168  0.48729179  0.41956968  1
  H  H14  1  0.28175253  0.80402754  0.04627080  1
