# generated using pymatgen
data_H2
_symmetry_space_group_name_H-M   'P 1'
_cell_length_a   5.03325818
_cell_length_b   5.51633607
_cell_length_c   7.02736096
_cell_angle_alpha   113.96886005
_cell_angle_beta   97.25396984
_cell_angle_gamma   86.64150642
_symmetry_Int_Tables_number   1
_chemical_formula_structural   H2
_chemical_formula_sum   H19
_cell_volume   176.85743994
_cell_formula_units_Z   9
loop_
 _symmetry_equiv_pos_site_id
 _symmetry_equiv_pos_as_xyz
  1  'x, y, z'
loop_
 _atom_site_type_symbol
 _atom_site_label
 _atom_site_symmetry_multiplicity
 _atom_site_fract_x
 _atom_site_fract_y
 _atom_site_fract_z
 _atom_site_occupancy
  H  H0  1  0.13618978  0.07816627  0.80446609  1
  H  H1  1  0.27043156  0.06223795  0.76506303  1
  H  H2  1  0.72411882  0.21101142  0.67479133  1
  H  H3  1  0.64817342  0.32752147  0.74407609  1
  H  H4  1  0.35996034  0.03149320  0.27391897  1
  H  H5  1  0.48278368  0.07889167  0.25002472  1
  H  H6  1  -0.00629231  0.21382365  0.32026121  1
  H  H7  1  0.87538947  0.26423491  0.38070533  1
  H  H8  1  0.16368362  0.48922129  0.71596735  1
  H  H9  1  0.20738671  0.62827444  0.78416151  1
  H  H10  1  0.73637337  0.97296506  0.95059778  1
  H  H11  1  0.79457096  0.83577520  0.91014961  1
  H  H12  1  0.60957184  0.56447820  0.14947110  1
  H  H13  1  0.41192648  0.55425820  0.14664556  1
  H  H14  1  0.47356440  0.65220157  0.52129693  1
  H  H15  1  0.21197115  0.56938370  0.16044168  1
  H  H16  1  0.61078492  0.70060438  0.52493911  1
  H  H17  1  0.01158889  0.58880792  0.17233929  1
  H  H18  1  0.81213288  0.58460153  0.16431132  1
