# generated using pymatgen
data_H2
_symmetry_space_group_name_H-M   'P 1'
_cell_length_a   5.04601658
_cell_length_b   5.53797995
_cell_length_c   7.19815764
_cell_angle_alpha   99.49339015
_cell_angle_beta   99.85498401
_cell_angle_gamma   96.99077060
_symmetry_Int_Tables_number   1
_chemical_formula_structural   H2
_chemical_formula_sum   H25
_cell_volume   193.12745119
_cell_formula_units_Z   12
loop_
 _symmetry_equiv_pos_site_id
 _symmetry_equiv_pos_as_xyz
  1  'x, y, z'
loop_
 _atom_site_type_symbol
 _atom_site_label
 _atom_site_symmetry_multiplicity
 _atom_site_fract_x
 _atom_site_fract_y
 _atom_site_fract_z
 _atom_site_occupancy
  H  H0  1  0.57480250  0.27284082  0.83708104  1
  H  H1  1  0.14681184  0.20382399  0.88274588  1
  H  H2  1  0.14881360  0.89839189  0.46143648  1
  H  H3  1  0.23945372  0.96390857  0.55444169  1
  H  H4  1  0.95325506  0.54262765  0.17738518  1
  H  H5  1  0.15436277  0.54557109  0.17554687  1
  H  H6  1  0.35325739  0.54467235  0.17356359  1
  H  H7  1  0.75256582  0.54084376  0.17648758  1
  H  H8  1  0.55426714  0.54200213  0.17477487  1
  H  H9  1  0.86725753  0.00993359  0.12540506  1
  H  H10  1  0.83016804  0.04638572  0.22131985  1
  H  H11  1  0.60810779  0.83316936  0.49015410  1
  H  H12  1  0.74289034  0.80533359  0.53586912  1
  H  H13  1  0.02765173  0.74305808  0.81740039  1
  H  H14  1  0.92635157  0.65197843  0.84515224  1
  H  H15  1  0.39433375  0.03231680  0.12777389  1
  H  H16  1  0.29840707  0.06161526  0.19408744  1
  H  H17  1  0.50921135  0.76646587  0.80736670  1
  H  H18  1  0.45704775  0.70495246  0.88185184  1
  H  H19  1  0.15524338  0.45019403  0.52021887  1
  H  H20  1  0.29058048  0.41543621  0.50755894  1
  H  H21  1  0.69715795  0.33577466  0.44371140  1
  H  H22  1  0.70668543  0.28929936  0.53622519  1
  H  H23  1  0.10952092  0.24401140  0.78840558  1
  H  H24  1  0.68896908  0.19764695  0.84391621  1
