# generated using pymatgen
data_SrNbH6
_symmetry_space_group_name_H-M   'P 1'
_cell_length_a   3.43119139
_cell_length_b   3.78913797
_cell_length_c   6.45814842
_cell_angle_alpha   88.29970287
_cell_angle_beta   57.93920814
_cell_angle_gamma   89.34613422
_symmetry_Int_Tables_number   1
_chemical_formula_structural   SrNbH6
_chemical_formula_sum   'Sr1 Nb1 H6'
_cell_volume   71.12604129
_cell_formula_units_Z   1
loop_
 _symmetry_equiv_pos_site_id
 _symmetry_equiv_pos_as_xyz
  1  'x, y, z'
loop_
 _atom_site_type_symbol
 _atom_site_label
 _atom_site_symmetry_multiplicity
 _atom_site_fract_x
 _atom_site_fract_y
 _atom_site_fract_z
 _atom_site_occupancy
  Sr  Sr0  1  0.02647432  0.69167191  0.92929620  1
  Nb  Nb1  1  0.00990188  0.13589587  0.40961249  1
  H  H2  1  0.37885115  0.18122313  0.05995218  1
  H  H3  1  0.20657592  0.68599914  0.26559212  1
  H  H4  1  0.35125551  0.21206854  0.63103987  1
  H  H5  1  0.82848594  0.72689156  0.61743255  1
  H  H6  1  0.67885872  0.35034908  0.29518941  1
  H  H7  1  0.60136857  0.87790776  0.37755818  1
