# generated using pymatgen
data_SrNbH17
_symmetry_space_group_name_H-M   'P 1'
_cell_length_a   5.56621139
_cell_length_b   5.12167379
_cell_length_c   6.36857568
_cell_angle_alpha   84.01523320
_cell_angle_beta   95.43608512
_cell_angle_gamma   95.19978109
_symmetry_Int_Tables_number   1
_chemical_formula_structural   SrNbH17
_chemical_formula_sum   'Sr1 Nb1 H17'
_cell_volume   179.15685387
_cell_formula_units_Z   1
loop_
 _symmetry_equiv_pos_site_id
 _symmetry_equiv_pos_as_xyz
  1  'x, y, z'
loop_
 _atom_site_type_symbol
 _atom_site_label
 _atom_site_symmetry_multiplicity
 _atom_site_fract_x
 _atom_site_fract_y
 _atom_site_fract_z
 _atom_site_occupancy
  Sr  Sr0  1  0.72710459  0.45382770  0.59378417  1
  Nb  Nb1  1  0.26991772  0.83638264  0.67835955  1
  H  H2  1  0.94057941  0.32436095  0.10822911  1
  H  H3  1  0.85870628  0.20412699  0.13764948  1
  H  H4  1  0.10096496  0.53937000  0.79818181  1
  H  H5  1  0.18555871  0.83026548  -0.01523771  1
  H  H6  1  0.43357058  0.39115889  0.13208614  1
  H  H7  1  0.42855427  0.27393097  0.21513604  1
  H  H8  1  0.29497851  0.94254640  -0.01792920  1
  H  H9  1  0.50483612  0.07311341  0.77831120  1
  H  H10  1  0.18955704  0.10933646  0.46393430  1
  H  H11  1  0.21102583  0.19888080  0.57425614  1
  H  H12  1  0.09222388  0.81844011  0.42450705  1
  H  H13  1  0.95595698  0.91467869  0.69418666  1
  H  H14  1  0.30809727  0.56641007  0.53194130  1
  H  H15  1  0.71715506  0.73366602  0.10741566  1
  H  H16  1  0.81057417  0.76994602  0.19605172  1
  H  H17  1  0.49928879  0.90778087  0.48359108  1
  H  H18  1  0.49978382  0.63539854  0.83476751  1
