# generated using pymatgen
data_SrNb2H17
_symmetry_space_group_name_H-M   'P 1'
_cell_length_a   6.16971629
_cell_length_b   4.68694958
_cell_length_c   5.93110708
_cell_angle_alpha   94.51508907
_cell_angle_beta   104.62823275
_cell_angle_gamma   89.84259567
_symmetry_Int_Tables_number   1
_chemical_formula_structural   SrNb2H17
_chemical_formula_sum   'Sr1 Nb2 H17'
_cell_volume   165.41005456
_cell_formula_units_Z   1
loop_
 _symmetry_equiv_pos_site_id
 _symmetry_equiv_pos_as_xyz
  1  'x, y, z'
loop_
 _atom_site_type_symbol
 _atom_site_label
 _atom_site_symmetry_multiplicity
 _atom_site_fract_x
 _atom_site_fract_y
 _atom_site_fract_z
 _atom_site_occupancy
  Sr  Sr0  1  0.86475219  0.81360281  0.63668721  1
  Nb  Nb1  1  0.01144537  0.28522819  0.16989226  1
  Nb  Nb2  1  0.51095898  0.27943369  0.17598058  1
  H  H3  1  0.80846399  0.17190532  0.34467307  1
  H  H4  1  0.52133598  0.03045488  0.38936285  1
  H  H5  1  0.13354130  0.03453169  0.38611625  1
  H  H6  1  0.26016002  0.53801133  0.16367557  1
  H  H7  1  0.35176273  0.34722356  0.81193127  1
  H  H8  1  0.47400445  0.32301092  0.80227581  1
  H  H9  1  0.98588692  0.90275625  0.08936430  1
  H  H10  1  0.28336550  0.12986341  0.35906978  1
  H  H11  1  0.49823386  0.90452196  0.08870488  1
  H  H12  1  0.08532863  0.46467461  0.46836300  1
  H  H13  1  0.72110040  0.13802583  -0.00060557  1
  H  H14  1  0.75857724  0.54855257  0.17314828  1
  H  H15  1  0.22060288  0.10403304  0.01561887  1
  H  H16  1  0.40564476  0.83969960  0.72904224  1
  H  H17  1  0.37723275  0.75425362  0.60975899  1
  H  H18  1  0.58124532  0.43135113  0.47711147  1
  H  H19  1  0.93808573  0.34510858  0.84223787  1
