# generated using pymatgen
data_H2
_symmetry_space_group_name_H-M   'P 1'
_cell_length_a   5.52588564
_cell_length_b   5.02550713
_cell_length_c   7.49268377
_cell_angle_alpha   93.54599659
_cell_angle_beta   74.78035915
_cell_angle_gamma   94.49103670
_symmetry_Int_Tables_number   1
_chemical_formula_structural   H2
_chemical_formula_sum   H25
_cell_volume   199.97579761
_cell_formula_units_Z   12
loop_
 _symmetry_equiv_pos_site_id
 _symmetry_equiv_pos_as_xyz
  1  'x, y, z'
loop_
 _atom_site_type_symbol
 _atom_site_label
 _atom_site_symmetry_multiplicity
 _atom_site_fract_x
 _atom_site_fract_y
 _atom_site_fract_z
 _atom_site_occupancy
  H  H0  1  0.29164303  0.06008925  0.20503761  1
  H  H1  1  0.22299541  0.13167784  0.15101385  1
  H  H2  1  0.40581967  0.64362638  0.19469496  1
  H  H3  1  0.29530572  0.55662772  0.24348531  1
  H  H4  1  0.96319779  0.18330140  0.54944068  1
  H  H5  1  0.96949908  0.38271580  0.55065429  1
  H  H6  1  0.96018611  0.98482342  0.56049563  1
  H  H7  1  0.44657217  0.91202150  0.50938268  1
  H  H8  1  0.45713261  0.06033706  0.52836786  1
  H  H9  1  0.88348494  0.69094660  0.24737559  1
  H  H10  1  0.82765070  0.81793679  0.29032726  1
  H  H11  1  0.78433189  0.82174324  0.98388041  1
  H  H12  1  0.28874717  0.70343501  0.91209862  1
  H  H13  1  0.26598586  0.78841574  0.84034610  1
  H  H14  1  0.58770609  0.24453488  0.89680790  1
  H  H15  1  0.61370655  0.33114593  0.81537622  1
  H  H16  1  0.13822500  0.18476459  0.84672608  1
  H  H17  1  0.07266132  0.30981211  0.84578922  1
  H  H18  1  0.96441231  0.78477754  0.56883595  1
  H  H19  1  0.96967821  0.58648613  0.56229700  1
  H  H20  1  0.72627685  0.82227452  0.90439062  1
  H  H21  1  0.51655395  0.48262151  0.49142245  1
  H  H22  1  0.74960366  0.22163163  0.23861711  1
  H  H23  1  0.76685986  0.29906607  0.15393481  1
  H  H24  1  0.44994203  0.49531533  0.59194578  1
