# generated using pymatgen
data_Sr2NbH22
_symmetry_space_group_name_H-M   'P 1'
_cell_length_a   6.13452452
_cell_length_b   6.30918562
_cell_length_c   7.79360297
_cell_angle_alpha   83.97301294
_cell_angle_beta   70.81740531
_cell_angle_gamma   60.67732596
_symmetry_Int_Tables_number   1
_chemical_formula_structural   Sr2NbH22
_chemical_formula_sum   'Sr2 Nb1 H22'
_cell_volume   247.81888882
_cell_formula_units_Z   1
loop_
 _symmetry_equiv_pos_site_id
 _symmetry_equiv_pos_as_xyz
  1  'x, y, z'
loop_
 _atom_site_type_symbol
 _atom_site_label
 _atom_site_symmetry_multiplicity
 _atom_site_fract_x
 _atom_site_fract_y
 _atom_site_fract_z
 _atom_site_occupancy
  Sr  Sr0  1  0.25062177  0.78847285  0.48734716  1
  Sr  Sr1  1  0.81225284  0.47984536  0.73418375  1
  Nb  Nb2  1  0.54674676  0.15342687  0.60553044  1
  H  H3  1  0.22256490  0.03298231  0.13727951  1
  H  H4  1  0.06798331  0.43272941  0.08291948  1
  H  H5  1  0.09872207  0.03791572  0.20452019  1
  H  H6  1  0.86372749  0.15806463  0.56894772  1
  H  H7  1  0.52725113  0.28328305  0.81360268  1
  H  H8  1  0.58574895  0.83674992  0.55186794  1
  H  H9  1  0.31740161  0.10301829  0.81093891  1
  H  H10  1  0.83012075  0.96606400  0.39937153  1
  H  H11  1  0.51356675  0.27767656  0.38340562  1
  H  H12  1  0.77710326  0.16955031  0.00054388  1
  H  H13  1  0.62332992  0.89042720  0.08978343  1
  H  H14  1  0.65897534  0.88903406  0.17329327  1
  H  H15  1  0.78539683  0.88893155  0.70907920  1
  H  H16  1  0.96200503  0.49121470  0.17150949  1
  H  H17  1  0.26489419  0.16233029  0.53644358  1
  H  H18  1  0.60779026  0.41954221  0.53452865  1
  H  H19  1  0.88446599  0.17844250  0.02055332  1
  H  H20  1  0.23168798  0.45575016  0.67333072  1
  H  H21  1  0.41888897  0.49720911  0.16325908  1
  H  H22  1  0.34370084  0.61104712  0.11880895  1
  H  H23  1  0.21123228  0.82843529  0.86515733  1
  H  H24  1  0.20502777  0.71128655  0.86311117  1
