# generated using pymatgen
data_SrNbH17
_symmetry_space_group_name_H-M   'P 1'
_cell_length_a   5.10363888
_cell_length_b   5.67798362
_cell_length_c   5.83987041
_cell_angle_alpha   89.04011571
_cell_angle_beta   85.17325882
_cell_angle_gamma   87.30247811
_symmetry_Int_Tables_number   1
_chemical_formula_structural   SrNbH17
_chemical_formula_sum   'Sr1 Nb1 H17'
_cell_volume   168.42906217
_cell_formula_units_Z   1
loop_
 _symmetry_equiv_pos_site_id
 _symmetry_equiv_pos_as_xyz
  1  'x, y, z'
loop_
 _atom_site_type_symbol
 _atom_site_label
 _atom_site_symmetry_multiplicity
 _atom_site_fract_x
 _atom_site_fract_y
 _atom_site_fract_z
 _atom_site_occupancy
  Sr  Sr0  1  0.23979152  0.14695877  0.65851141  1
  Nb  Nb1  1  0.74156618  0.57138857  0.82247923  1
  H  H2  1  0.23781048  0.07768533  0.11786643  1
  H  H3  1  0.12706394  0.17343773  0.11784696  1
  H  H4  1  0.49921585  0.45462705  0.08734545  1
  H  H5  1  0.38747550  0.50723437  0.00813696  1
  H  H6  1  0.84493000  0.40682876  0.06958133  1
  H  H7  1  0.69911226  0.13687581  0.31797625  1
  H  H8  1  0.86372258  0.69628287  0.11567472  1
  H  H9  1  0.84856817  0.81684211  0.04139776  1
  H  H10  1  0.09103411  0.53080871  0.81770979  1
  H  H11  1  0.30982506  0.80938803  0.30891895  1
  H  H12  1  0.36451789  0.73821923  0.40749738  1
  H  H13  1  0.71662845  0.02737287  0.39100210  1
  H  H14  1  0.51704116  0.50332889  0.60342939  1
  H  H15  1  0.89863531  0.81249438  0.65424351  1
  H  H16  1  0.73286015  0.25362035  0.78767167  1
  H  H17  1  0.50074758  0.82958430  0.83833107  1
  H  H18  1  0.90307579  0.47858586  0.55360167  1
