# generated using pymatgen
data_H2
_symmetry_space_group_name_H-M   'P 1'
_cell_length_a   2.92625787
_cell_length_b   6.25202695
_cell_length_c   8.53374928
_cell_angle_alpha   96.45874682
_cell_angle_beta   94.25187415
_cell_angle_gamma   101.33619538
_symmetry_Int_Tables_number   1
_chemical_formula_structural   H2
_chemical_formula_sum   H17
_cell_volume   151.36369828
_cell_formula_units_Z   8
loop_
 _symmetry_equiv_pos_site_id
 _symmetry_equiv_pos_as_xyz
  1  'x, y, z'
loop_
 _atom_site_type_symbol
 _atom_site_label
 _atom_site_symmetry_multiplicity
 _atom_site_fract_x
 _atom_site_fract_y
 _atom_site_fract_z
 _atom_site_occupancy
  H  H0  1  0.10150809  0.23944807  0.48411919  1
  H  H1  1  0.15470317  0.35029303  0.53205710  1
  H  H2  1  0.66925027  0.56072306  0.43024210  1
  H  H3  1  0.78235265  0.67931710  0.44663841  1
  H  H4  1  0.31395859  0.81965158  0.67916260  1
  H  H5  1  0.17872639  0.73099482  0.71924193  1
  H  H6  1  0.92344199  0.06352373  0.77232616  1
  H  H7  1  0.46765034  0.01354291  0.38392735  1
  H  H8  1  0.36203343  0.91779264  0.32296695  1
  H  H9  1  0.40518052  0.09996512  0.08244485  1
  H  H10  1  0.53225764  0.06840954  0.01241869  1
  H  H11  1  0.87960036  0.58100093  0.13391043  1
  H  H12  1  0.54726991  0.58018188  0.13461909  1
  H  H13  1  0.21644089  0.58277270  0.13544229  1
  H  H14  1  0.61883928  0.54114617  0.83897566  1
  H  H15  1  0.53650831  0.41952589  0.83159550  1
  H  H16  1  0.86979416  0.17517684  0.76999369  1
