# generated using pymatgen
data_H2
_symmetry_space_group_name_H-M   'P 1'
_cell_length_a   2.55039465
_cell_length_b   6.56033958
_cell_length_c   7.00046192
_cell_angle_alpha   79.73353014
_cell_angle_beta   89.95968000
_cell_angle_gamma   87.29092924
_symmetry_Int_Tables_number   1
_chemical_formula_structural   H2
_chemical_formula_sum   H15
_cell_volume   115.12028076
_cell_formula_units_Z   7
loop_
 _symmetry_equiv_pos_site_id
 _symmetry_equiv_pos_as_xyz
  1  'x, y, z'
loop_
 _atom_site_type_symbol
 _atom_site_label
 _atom_site_symmetry_multiplicity
 _atom_site_fract_x
 _atom_site_fract_y
 _atom_site_fract_z
 _atom_site_occupancy
  H  H0  1  0.43142363  0.32847874  0.49648914  1
  H  H1  1  0.27755364  0.23677290  0.53811954  1
  H  H2  1  0.38702749  0.89169512  0.65707846  1
  H  H3  1  0.28236618  0.89143320  0.75719155  1
  H  H4  1  0.79320503  0.73381676  0.45753724  1
  H  H5  1  0.87877612  0.62151468  0.48446682  1
  H  H6  1  0.75523176  0.10194174  0.87449016  1
  H  H7  1  0.86078044  0.18011894  0.92877876  1
  H  H8  1  0.36266980  0.46245506  0.80584480  1
  H  H9  1  0.20008706  0.54446660  0.84379487  1
  H  H10  1  0.30902778  0.89815596  0.17757409  1
  H  H11  1  0.32439138  0.79274318  0.10783836  1
  H  H12  1  0.83990198  0.45838012  0.16286586  1
  H  H13  1  0.83077533  0.34215295  0.18802125  1
  H  H14  1  0.29313737  0.00369206  0.25135010  1
