# generated using pymatgen
data_H2
_symmetry_space_group_name_H-M   'P 1'
_cell_length_a   2.55515181
_cell_length_b   6.14818452
_cell_length_c   8.09924060
_cell_angle_alpha   81.11811284
_cell_angle_beta   81.40730690
_cell_angle_gamma   83.49680185
_symmetry_Int_Tables_number   1
_chemical_formula_structural   H2
_chemical_formula_sum   H17
_cell_volume   123.76779001
_cell_formula_units_Z   8
loop_
 _symmetry_equiv_pos_site_id
 _symmetry_equiv_pos_as_xyz
  1  'x, y, z'
loop_
 _atom_site_type_symbol
 _atom_site_label
 _atom_site_symmetry_multiplicity
 _atom_site_fract_x
 _atom_site_fract_y
 _atom_site_fract_z
 _atom_site_occupancy
  H  H0  1  0.40064448  0.61449622  0.51308452  1
  H  H1  1  0.55330737  0.51893947  0.55825883  1
  H  H2  1  0.67478831  0.91991509  0.00959053  1
  H  H3  1  0.64378408  0.03903031  0.04106062  1
  H  H4  1  0.73388078  0.85388952  0.63339169  1
  H  H5  1  0.85074008  0.94614015  0.66223192  1
  H  H6  1  0.19600400  0.28374393  0.79353174  1
  H  H7  1  0.17508968  0.18049657  0.75809278  1
  H  H8  1  0.30846297  0.58416134  0.91602484  1
  H  H9  1  0.16915206  0.63730402  0.84352063  1
  H  H10  1  0.61457367  0.41461528  0.15229219  1
  H  H11  1  0.57590851  0.53661632  0.18155808  1
  H  H12  1  0.63122197  0.22780556  0.10065687  1
  H  H13  1  0.00435559  0.80728058  0.28778035  1
  H  H14  1  0.99374027  0.91427777  0.32071286  1
  H  H15  1  0.07160735  0.19763423  0.40113946  1
  H  H16  1  0.18515483  0.27346163  0.44649409  1
