# generated using pymatgen
data_H2
_symmetry_space_group_name_H-M   'P 1'
_cell_length_a   2.98009383
_cell_length_b   4.89553711
_cell_length_c   8.86782677
_cell_angle_alpha   97.88598793
_cell_angle_beta   87.54844489
_cell_angle_gamma   85.84237657
_symmetry_Int_Tables_number   1
_chemical_formula_structural   H2
_chemical_formula_sum   H16
_cell_volume   127.63128355
_cell_formula_units_Z   8
loop_
 _symmetry_equiv_pos_site_id
 _symmetry_equiv_pos_as_xyz
  1  'x, y, z'
loop_
 _atom_site_type_symbol
 _atom_site_label
 _atom_site_symmetry_multiplicity
 _atom_site_fract_x
 _atom_site_fract_y
 _atom_site_fract_z
 _atom_site_occupancy
  H  H0  1  0.91757790  0.51027685  0.69575140  1
  H  H1  1  0.66674972  0.52656177  0.70685239  1
  H  H2  1  0.45598648  0.89354120  0.52087482  1
  H  H3  1  0.78857199  0.89540482  0.51992007  1
  H  H4  1  0.12340864  0.89457312  0.52023088  1
  H  H5  1  0.35958757  0.11283609  0.16096878  1
  H  H6  1  0.16514550  0.17423308  0.12279138  1
  H  H7  1  0.11614948  0.07949050  0.83763850  1
  H  H8  1  0.44530705  0.07939946  0.83757516  1
  H  H9  1  0.78034764  0.07911367  0.83923018  1
  H  H10  1  0.35667131  0.59754945  0.98330638  1
  H  H11  1  0.13508524  0.63954640  0.95328230  1
  H  H12  1  0.23882232  0.35370611  0.42420917  1
  H  H13  1  0.47437867  0.35903994  0.44977668  1
  H  H14  1  0.63061432  0.63825252  0.24679040  1
  H  H15  1  0.84127517  0.68828403  0.21602052  1
