# generated using pymatgen
data_H2
_symmetry_space_group_name_H-M   'P 1'
_cell_length_a   2.97249897
_cell_length_b   5.59062418
_cell_length_c   9.20499455
_cell_angle_alpha   89.99973716
_cell_angle_beta   79.83566435
_cell_angle_gamma   75.27293926
_symmetry_Int_Tables_number   1
_chemical_formula_structural   H2
_chemical_formula_sum   H17
_cell_volume   145.46070631
_cell_formula_units_Z   8
loop_
 _symmetry_equiv_pos_site_id
 _symmetry_equiv_pos_as_xyz
  1  'x, y, z'
loop_
 _atom_site_type_symbol
 _atom_site_label
 _atom_site_symmetry_multiplicity
 _atom_site_fract_x
 _atom_site_fract_y
 _atom_site_fract_z
 _atom_site_occupancy
  H  H0  1  0.28073801  0.92409108  0.14481566  1
  H  H1  1  0.15306029  0.92097700  0.08201122  1
  H  H2  1  0.91442622  0.51407337  0.18484016  1
  H  H3  1  0.85139338  0.41571251  0.14356897  1
  H  H4  1  0.46304467  0.18189358  0.39789037  1
  H  H5  1  0.29495140  0.17370024  0.34760038  1
  H  H6  1  0.87451927  0.70662425  0.90223987  1
  H  H7  1  0.10570466  0.65028023  0.85257146  1
  H  H8  1  0.78353600  0.22073619  0.89281391  1
  H  H9  1  0.55489870  0.24278825  0.94666627  1
  H  H10  1  0.16354342  0.76136010  0.42503492  1
  H  H11  1  0.18075556  0.65711781  0.37169372  1
  H  H12  1  0.61518410  0.47836135  0.59510978  1
  H  H13  1  0.76057072  0.48444287  0.65285903  1
  H  H14  1  0.56906121  -0.00730587  0.65442565  1
  H  H15  1  0.23627665  0.99461413  0.65546479  1
  H  H16  1  0.89200674  -0.00003207  0.65985983  1
