# generated using pymatgen
data_H2
_symmetry_space_group_name_H-M   'P 1'
_cell_length_a   2.90015235
_cell_length_b   5.26698549
_cell_length_c   7.73825881
_cell_angle_alpha   82.43330519
_cell_angle_beta   87.59348162
_cell_angle_gamma   79.59154737
_symmetry_Int_Tables_number   1
_chemical_formula_structural   H2
_chemical_formula_sum   H12
_cell_volume   115.22491115
_cell_formula_units_Z   6
loop_
 _symmetry_equiv_pos_site_id
 _symmetry_equiv_pos_as_xyz
  1  'x, y, z'
loop_
 _atom_site_type_symbol
 _atom_site_label
 _atom_site_symmetry_multiplicity
 _atom_site_fract_x
 _atom_site_fract_y
 _atom_site_fract_z
 _atom_site_occupancy
  H  H0  1  0.64546688  0.88669158  0.48861830  1
  H  H1  1  0.77769913  0.95825259  0.54126024  1
  H  H2  1  0.35325529  0.42145337  0.74723995  1
  H  H3  1  0.50113387  0.50979124  0.77689748  1
  H  H4  1  0.98602347  0.34964960  0.42785709  1
  H  H5  1  0.10660405  0.45194639  0.45502142  1
  H  H6  1  0.32478177  0.84161843  0.20981240  1
  H  H7  1  0.16814128  0.75699729  0.18135533  1
  H  H8  1  0.76712412  0.24276388  0.10439987  1
  H  H9  1  0.58099513  0.33635191  0.14461104  1
  H  H10  1  0.74728806  0.97303981  0.87493494  1
  H  H11  1  0.61131095  0.86448993  0.87705496  1
