# generated using pymatgen
data_SrNbH6
_symmetry_space_group_name_H-M   'P 1'
_cell_length_a   3.61661122
_cell_length_b   3.66124107
_cell_length_c   5.39605611
_cell_angle_alpha   88.88612362
_cell_angle_beta   89.24332409
_cell_angle_gamma   91.59776887
_symmetry_Int_Tables_number   1
_chemical_formula_structural   SrNbH6
_chemical_formula_sum   'Sr1 Nb1 H6'
_cell_volume   71.40268663
_cell_formula_units_Z   1
loop_
 _symmetry_equiv_pos_site_id
 _symmetry_equiv_pos_as_xyz
  1  'x, y, z'
loop_
 _atom_site_type_symbol
 _atom_site_label
 _atom_site_symmetry_multiplicity
 _atom_site_fract_x
 _atom_site_fract_y
 _atom_site_fract_z
 _atom_site_occupancy
  Sr  Sr0  1  0.33042098  0.37406712  0.20266124  1
  Nb  Nb1  1  0.77506354  0.81349862  0.68042781  1
  H  H2  1  0.83564925  0.39841272  0.89673555  1
  H  H3  1  0.33206363  0.92689547  0.53556612  1
  H  H4  1  0.41345901  0.48297749  0.68911025  1
  H  H5  1  0.36258503  0.88572490  0.89854943  1
  H  H6  1  0.81661609  0.85612348  0.33028588  1
  H  H7  1  0.86207347  0.36331320  0.53341273  1
