# generated using pymatgen
data_H2
_symmetry_space_group_name_H-M   'P 1'
_cell_length_a   5.71497937
_cell_length_b   5.71205464
_cell_length_c   7.09148116
_cell_angle_alpha   99.79819343
_cell_angle_beta   100.10541213
_cell_angle_gamma   99.92028240
_symmetry_Int_Tables_number   1
_chemical_formula_structural   H2
_chemical_formula_sum   H24
_cell_volume   219.65143938
_cell_formula_units_Z   12
loop_
 _symmetry_equiv_pos_site_id
 _symmetry_equiv_pos_as_xyz
  1  'x, y, z'
loop_
 _atom_site_type_symbol
 _atom_site_label
 _atom_site_symmetry_multiplicity
 _atom_site_fract_x
 _atom_site_fract_y
 _atom_site_fract_z
 _atom_site_occupancy
  H  H0  1  0.25287030  0.95922669  0.17968540  1
  H  H1  1  0.31762257  0.07803217  0.16432991  1
  H  H2  1  0.42854198  0.13912512  0.85978140  1
  H  H3  1  0.44816124  0.55359347  0.83623644  1
  H  H4  1  0.56298352  0.72795015  0.56113581  1
  H  H5  1  0.41789658  0.67499269  0.86694339  1
  H  H6  1  0.48519712  0.07823507  0.78260393  1
  H  H7  1  0.79871214  0.89324368  0.14207343  1
  H  H8  1  0.72947920  0.92696599  0.21954633  1
  H  H9  1  0.13159038  0.83637392  0.53499731  1
  H  H10  1  0.02413208  0.75556936  0.46330174  1
  H  H11  1  0.14170867  0.36867114  0.52470197  1
  H  H12  1  0.16468508  0.25464775  0.46798516  1
  H  H13  1  0.27195500  0.51292573  0.23145139  1
  H  H14  1  0.30291440  0.53225750  0.13601658  1
  H  H15  1  0.73802639  0.45553861  0.17042778  1
  H  H16  1  0.80384438  0.35328347  0.15615986  1
  H  H17  1  0.63231076  0.29076739  0.55752504  1
  H  H18  1  0.68111953  0.28358383  0.46573887  1
  H  H19  1  0.95182736  0.60633708  0.88427506  1
  H  H20  1  0.92969190  0.69312322  0.81810025  1
  H  H21  1  0.98695029  0.14154463  0.88691858  1
  H  H22  1  0.95879151  0.16470649  0.78527626  1
  H  H23  1  0.61309264  0.82710286  0.51331613  1
