# generated using pymatgen
data_H2
_symmetry_space_group_name_H-M   'P 1'
_cell_length_a   3.07483467
_cell_length_b   5.71092456
_cell_length_c   7.47600182
_cell_angle_alpha   109.94543231
_cell_angle_beta   90.31034926
_cell_angle_gamma   87.97870606
_symmetry_Int_Tables_number   1
_chemical_formula_structural   H2
_chemical_formula_sum   H15
_cell_volume   123.32543441
_cell_formula_units_Z   7
loop_
 _symmetry_equiv_pos_site_id
 _symmetry_equiv_pos_as_xyz
  1  'x, y, z'
loop_
 _atom_site_type_symbol
 _atom_site_label
 _atom_site_symmetry_multiplicity
 _atom_site_fract_x
 _atom_site_fract_y
 _atom_site_fract_z
 _atom_site_occupancy
  H  H0  1  0.06619660  0.42255165  0.98497442  1
  H  H1  1  0.55744680  0.11286095  0.81161626  1
  H  H2  1  0.94523298  0.68484284  0.80391391  1
  H  H3  1  0.13036150  0.76638612  0.80216635  1
  H  H4  1  0.30458752  0.92274864  0.14880922  1
  H  H5  1  0.90216557  0.44850718  0.06353889  1
  H  H6  1  0.47129072  0.06791380  0.71240416  1
  H  H7  1  0.58675786  0.35110571  0.31530641  1
  H  H8  1  0.41367647  0.42564767  0.28694339  1
  H  H9  1  0.95675422  0.80919900  0.41151824  1
  H  H10  1  -0.00356187  0.75894438  0.49126959  1
  H  H11  1  0.08540248  0.29852397  0.51505209  1
  H  H12  1  0.94801669  0.25811011  0.58134340  1
  H  H13  1  0.97148121  0.93092412  0.15141589  1
  H  H14  1  0.63926925  0.92068386  0.14705678  1
