# generated using pymatgen
data_H2
_symmetry_space_group_name_H-M   'P 1'
_cell_length_a   3.09776018
_cell_length_b   5.40098249
_cell_length_c   8.45748127
_cell_angle_alpha   84.23087807
_cell_angle_beta   88.93343454
_cell_angle_gamma   75.15782864
_symmetry_Int_Tables_number   1
_chemical_formula_structural   H2
_chemical_formula_sum   H15
_cell_volume   136.08396094
_cell_formula_units_Z   7
loop_
 _symmetry_equiv_pos_site_id
 _symmetry_equiv_pos_as_xyz
  1  'x, y, z'
loop_
 _atom_site_type_symbol
 _atom_site_label
 _atom_site_symmetry_multiplicity
 _atom_site_fract_x
 _atom_site_fract_y
 _atom_site_fract_z
 _atom_site_occupancy
  H  H0  1  0.68449202  0.89452228  0.13991358  1
  H  H1  1  0.54838037  0.02088804  0.10176863  1
  H  H2  1  0.37121187  0.01187074  0.79664146  1
  H  H3  1  0.70567530  0.01181061  0.79671169  1
  H  H4  1  0.03809749  0.01236239  0.79655409  1
  H  H5  1  0.34606062  0.52069260  0.71605557  1
  H  H6  1  0.47779060  0.59988771  0.66867437  1
  H  H7  1  0.90647433  0.77714378  0.46586538  1
  H  H8  1  0.73454006  0.89260121  0.42910058  1
  H  H9  1  0.85736430  0.49724080  0.95135465  1
  H  H10  1  -0.00427234  0.37278397  0.99111213  1
  H  H11  1  0.47656498  0.50550556  0.28156443  1
  H  H12  1  0.35811796  0.48129117  0.21053890  1
  H  H13  1  0.11495461  0.28036066  0.46373515  1
  H  H14  1  0.96819382  0.26522748  0.53326041  1
