# generated using pymatgen
data_H2
_symmetry_space_group_name_H-M   'P 1'
_cell_length_a   5.33314870
_cell_length_b   5.68077241
_cell_length_c   7.37019189
_cell_angle_alpha   74.64745199
_cell_angle_beta   86.10636193
_cell_angle_gamma   83.20343136
_symmetry_Int_Tables_number   1
_chemical_formula_structural   H2
_chemical_formula_sum   H22
_cell_volume   213.65303692
_cell_formula_units_Z   11
loop_
 _symmetry_equiv_pos_site_id
 _symmetry_equiv_pos_as_xyz
  1  'x, y, z'
loop_
 _atom_site_type_symbol
 _atom_site_label
 _atom_site_symmetry_multiplicity
 _atom_site_fract_x
 _atom_site_fract_y
 _atom_site_fract_z
 _atom_site_occupancy
  H  H0  1  0.34392292  0.15907752  0.65612696  1
  H  H1  1  0.34272517  0.22543644  0.55377752  1
  H  H2  1  0.31888375  0.85412504  0.95073135  1
  H  H3  1  0.84642510  0.17855067  0.01810844  1
  H  H4  1  0.81581259  0.27133963  0.92715895  1
  H  H5  1  0.26254202  0.33008516  0.01381416  1
  H  H6  1  0.34698828  0.38591776  0.93233941  1
  H  H7  1  0.30650349  0.71433653  0.54512619  1
  H  H8  1  0.30302682  0.67028516  0.65030718  1
  H  H9  1  0.87267688  0.91059158  0.79025647  1
  H  H10  1  0.45859160  0.85259956  0.93045599  1
  H  H11  1  0.86004079  0.81913356  0.73526861  1
  H  H12  1  0.88265061  0.44079558  0.59635192  1
  H  H13  1  0.74430156  0.47493970  0.57981337  1
  H  H14  1  0.11547132  0.66024996  0.20097016  1
  H  H15  1  0.01507245  0.63626342  0.27797366  1
  H  H16  1  0.64716183  0.46330287  0.21100825  1
  H  H17  1  0.53434901  0.45207301  0.27780309  1
  H  H18  1  0.57905958  0.95038812  0.32482560  1
  H  H19  1  0.53987520  0.94007877  0.23175571  1
  H  H20  1  0.95530298  0.12590462  0.36639861  1
  H  H21  1  0.08784807  0.09018833  0.33553239  1
