# generated using pymatgen
data_H2
_symmetry_space_group_name_H-M   'P 1'
_cell_length_a   3.08676123
_cell_length_b   5.48368556
_cell_length_c   9.30834954
_cell_angle_alpha   86.29189126
_cell_angle_beta   91.34191311
_cell_angle_gamma   105.14833310
_symmetry_Int_Tables_number   1
_chemical_formula_structural   H2
_chemical_formula_sum   H17
_cell_volume   151.76412074
_cell_formula_units_Z   8
loop_
 _symmetry_equiv_pos_site_id
 _symmetry_equiv_pos_as_xyz
  1  'x, y, z'
loop_
 _atom_site_type_symbol
 _atom_site_label
 _atom_site_symmetry_multiplicity
 _atom_site_fract_x
 _atom_site_fract_y
 _atom_site_fract_z
 _atom_site_occupancy
  H  H0  1  0.40631743  0.76508662  0.05891922  1
  H  H1  1  0.50422520  0.66161976  0.08990053  1
  H  H2  1  0.13859990  0.16989610  0.10125554  1
  H  H3  1  0.32963123  0.17995660  0.15404742  1
  H  H4  1  0.71171895  0.45576709  0.89575480  1
  H  H5  1  0.84373083  0.39809774  0.84733850  1
  H  H6  1  0.83458979  0.50809795  0.33232046  1
  H  H7  1  0.93943729  0.40078395  0.32673011  1
  H  H8  1  0.92146683  0.64947470  0.60092826  1
  H  H9  1  0.58308977  0.64305602  0.60228341  1
  H  H10  1  0.25352560  0.64412601  0.60233100  1
  H  H11  1  0.01968936  0.00164826  0.86211456  1
  H  H12  1  0.14829153  0.92373659  0.82689486  1
  H  H13  1  0.52689743  0.87280160  0.32405675  1
  H  H14  1  0.70142247  0.94182546  0.37499919  1
  H  H15  1  0.59130253  0.17367850  0.58774878  1
  H  H16  1  0.78667387  0.13241006  0.62149662  1
