# generated using pymatgen
data_H2
_symmetry_space_group_name_H-M   'P 1'
_cell_length_a   2.93581412
_cell_length_b   7.44825233
_cell_length_c   7.38370698
_cell_angle_alpha   100.64469498
_cell_angle_beta   91.95365260
_cell_angle_gamma   97.27716347
_symmetry_Int_Tables_number   1
_chemical_formula_structural   H2
_chemical_formula_sum   H20
_cell_volume   157.12668369
_cell_formula_units_Z   10
loop_
 _symmetry_equiv_pos_site_id
 _symmetry_equiv_pos_as_xyz
  1  'x, y, z'
loop_
 _atom_site_type_symbol
 _atom_site_label
 _atom_site_symmetry_multiplicity
 _atom_site_fract_x
 _atom_site_fract_y
 _atom_site_fract_z
 _atom_site_occupancy
  H  H0  1  0.74395569  0.14776384  0.10704368  1
  H  H1  1  0.62334491  0.23189225  0.12751115  1
  H  H2  1  0.22430978  0.48625138  0.18744232  1
  H  H3  1  0.43019019  0.54701293  0.16489966  1
  H  H4  1  0.05435283  0.80300432  0.14886115  1
  H  H5  1  0.89758128  0.87534525  0.16276966  1
  H  H6  1  0.90386211  0.41846355  0.47507281  1
  H  H7  1  0.75362864  0.49347491  0.48919984  1
  H  H8  1  0.14475189  0.12973297  0.46386494  1
  H  H9  1  0.27693887  0.15398484  0.38472432  1
  H  H10  1  0.84686957  0.81394927  0.50111377  1
  H  H11  1  0.57074001  0.24877596  0.80284284  1
  H  H12  1  0.68307473  0.28932519  0.72713878  1
  H  H13  1  0.98810859  0.01399833  0.81728895  1
  H  H14  1  0.13533834  0.95360737  0.85578350  1
  H  H15  1  0.51252192  0.81394116  0.50114755  1
  H  H16  1  0.17887641  0.81334498  0.50122756  1
  H  H17  1  0.92104123  0.62559835  0.83332882  1
  H  H18  1  0.25440849  0.62570404  0.83309888  1
  H  H19  1  0.58881951  0.62627611  0.83329780  1
