# generated using pymatgen
data_Sr(NbH10)2
_symmetry_space_group_name_H-M   'P 1'
_cell_length_a   5.12786375
_cell_length_b   6.75763832
_cell_length_c   7.64691829
_cell_angle_alpha   72.54098056
_cell_angle_beta   60.69443199
_cell_angle_gamma   65.59596923
_symmetry_Int_Tables_number   1
_chemical_formula_structural   Sr(NbH10)2
_chemical_formula_sum   'Sr1 Nb2 H20'
_cell_volume   208.82410524
_cell_formula_units_Z   1
loop_
 _symmetry_equiv_pos_site_id
 _symmetry_equiv_pos_as_xyz
  1  'x, y, z'
loop_
 _atom_site_type_symbol
 _atom_site_label
 _atom_site_symmetry_multiplicity
 _atom_site_fract_x
 _atom_site_fract_y
 _atom_site_fract_z
 _atom_site_occupancy
  Sr  Sr0  1  0.99162692  0.14206820  0.40607254  1
  Nb  Nb1  1  0.53170051  0.70035353  0.64690552  1
  Nb  Nb2  1  0.22986365  0.55818629  0.44280522  1
  H  H3  1  0.87808388  0.21170116  0.06481968  1
  H  H4  1  0.01310080  0.11492120  0.01455116  1
  H  H5  1  0.28308511  0.75715587  0.21858248  1
  H  H6  1  0.14778034  0.90161559  0.68417592  1
  H  H7  1  0.40338029  0.90640884  0.79506820  1
  H  H8  1  0.86985939  0.69076602  0.38643218  1
  H  H9  1  0.38663775  0.46315971  0.64849729  1
  H  H10  1  0.43888322  0.74953029  0.41980870  1
  H  H11  1  0.64250237  0.47436853  0.25999254  1
  H  H12  1  0.12947580  0.68611969  0.97621371  1
  H  H13  1  0.11732927  0.60705913  0.92901128  1
  H  H14  1  0.56196784  0.64524164  0.92923273  1
  H  H15  1  0.67444718  0.53354515  0.88184375  1
  H  H16  1  0.57736664  0.04305815  0.01801503  1
  H  H17  1  0.48562347  0.13510196  0.96525868  1
  H  H18  1  0.91084260  0.41561816  0.61359672  1
  H  H19  1  0.41547506  0.26779189  0.45549211  1
  H  H20  1  0.27778979  0.43470491  0.24625096  1
  H  H21  1  0.51934970  0.96293817  0.51640761  1
  H  H22  1  0.85753742  0.77755593  0.62322496  1
