# generated using pymatgen
data_H2
_symmetry_space_group_name_H-M   'P 1'
_cell_length_a   3.01248159
_cell_length_b   5.44747278
_cell_length_c   9.94304702
_cell_angle_alpha   92.92542950
_cell_angle_beta   89.99915418
_cell_angle_gamma   85.11381139
_symmetry_Int_Tables_number   1
_chemical_formula_structural   H2
_chemical_formula_sum   H18
_cell_volume   162.36308263
_cell_formula_units_Z   9
loop_
 _symmetry_equiv_pos_site_id
 _symmetry_equiv_pos_as_xyz
  1  'x, y, z'
loop_
 _atom_site_type_symbol
 _atom_site_label
 _atom_site_symmetry_multiplicity
 _atom_site_fract_x
 _atom_site_fract_y
 _atom_site_fract_z
 _atom_site_occupancy
  H  H0  1  0.24644476  0.02737729  0.71547173  1
  H  H1  1  0.49291749  0.48431712  0.86193040  1
  H  H2  1  0.82438104  0.48420988  0.86343536  1
  H  H3  1  0.15889637  0.48420615  0.86247672  1
  H  H4  1  0.31002293  0.48701636  0.60008166  1
  H  H5  1  0.52906730  0.41020984  0.59675825  1
  H  H6  1  0.80607075  0.81006194  0.46221128  1
  H  H7  1  0.89855573  0.70359338  0.41682384  1
  H  H8  1  0.22037113  0.92496716  0.66306979  1
  H  H9  1  0.86418533  0.97870136  0.94074801  1
  H  H10  1  0.03739946  0.99808318  0.99365296  1
  H  H11  1  0.05265702  0.24288994  0.41103802  1
  H  H12  1  0.83779330  0.24339324  0.37292154  1
  H  H13  1  0.34419381  0.93660794  0.23008651  1
  H  H14  1  0.54215738  0.95231246  0.18650826  1
  H  H15  1  0.91365830  0.45836701  0.14763937  1
  H  H16  1  0.24744621  0.45904344  0.14663715  1
  H  H17  1  0.58020271  0.45938830  0.14682315  1
