# generated using pymatgen
data_SrNbH16
_symmetry_space_group_name_H-M   'P 1'
_cell_length_a   5.70834676
_cell_length_b   5.55496500
_cell_length_c   5.81299611
_cell_angle_alpha   107.41969233
_cell_angle_beta   80.11229969
_cell_angle_gamma   90.74347902
_symmetry_Int_Tables_number   1
_chemical_formula_structural   SrNbH16
_chemical_formula_sum   'Sr1 Nb1 H16'
_cell_volume   173.11713844
_cell_formula_units_Z   1
loop_
 _symmetry_equiv_pos_site_id
 _symmetry_equiv_pos_as_xyz
  1  'x, y, z'
loop_
 _atom_site_type_symbol
 _atom_site_label
 _atom_site_symmetry_multiplicity
 _atom_site_fract_x
 _atom_site_fract_y
 _atom_site_fract_z
 _atom_site_occupancy
  Sr  Sr0  1  0.24475349  0.74249813  0.84824241  1
  Nb  Nb1  1  0.42971683  0.12227786  0.46241297  1
  H  H2  1  0.58146507  0.21594219  0.16270304  1
  H  H3  1  0.44025777  0.21517751  0.15094333  1
  H  H4  1  0.87833470  0.56586372  0.17834583  1
  H  H5  1  0.98029420  0.46807819  0.13339467  1
  H  H6  1  0.03840802  0.07838211  0.24051542  1
  H  H7  1  0.90606286  0.05915932  0.21100904  1
  H  H8  1  0.78228342  0.72947533  0.75422674  1
  H  H9  1  0.74777405  0.76062292  0.89450195  1
  H  H10  1  0.16414301  0.95413010  0.53647131  1
  H  H11  1  0.52742230  0.86704338  0.56124863  1
  H  H12  1  0.72230762  0.11134050  0.59180864  1
  H  H13  1  0.16273328  0.32790093  0.54411198  1
  H  H14  1  0.71294082  0.25901755  0.59466372  1
  H  H15  1  0.51710302  0.45371166  0.53569683  1
  H  H16  1  0.46802688  0.82530673  0.18855616  1
  H  H17  1  0.33544467  0.22502886  0.80299631  1
