# generated using pymatgen
data_Sr(NbH3)5
_symmetry_space_group_name_H-M   'P 1'
_cell_length_a   5.03835578
_cell_length_b   5.78926684
_cell_length_c   6.37144098
_cell_angle_alpha   90.75901949
_cell_angle_beta   89.45213544
_cell_angle_gamma   90.99798723
_symmetry_Int_Tables_number   1
_chemical_formula_structural   Sr(NbH3)5
_chemical_formula_sum   'Sr1 Nb5 H15'
_cell_volume   185.79206155
_cell_formula_units_Z   1
loop_
 _symmetry_equiv_pos_site_id
 _symmetry_equiv_pos_as_xyz
  1  'x, y, z'
loop_
 _atom_site_type_symbol
 _atom_site_label
 _atom_site_symmetry_multiplicity
 _atom_site_fract_x
 _atom_site_fract_y
 _atom_site_fract_z
 _atom_site_occupancy
  Sr  Sr0  1  0.54806742  0.80672433  0.85598566  1
  Nb  Nb1  1  0.58424430  0.05064644  0.35770834  1
  Nb  Nb2  1  0.08193227  0.29041101  0.62941404  1
  Nb  Nb3  1  0.07852713  0.28521087  0.11043198  1
  Nb  Nb4  1  0.59102850  0.53528657  0.36535147  1
  Nb  Nb5  1  0.09239274  0.78931747  0.39250095  1
  H  H6  1  0.60242916  0.78502562  0.18765895  1
  H  H7  1  0.90867998  0.58307481  0.18059461  1
  H  H8  1  0.29870181  0.57516423  0.15946117  1
  H  H9  1  0.74743225  0.82952625  0.52605103  1
  H  H10  1  0.89236761  0.56877877  0.58175111  1
  H  H11  1  0.98097946  0.47710070  0.87688224  1
  H  H12  1  0.31059660  0.29070942  0.37059371  1
  H  H13  1  0.70064577  0.26647271  0.58533109  1
  H  H14  1  0.94810512  0.10378855  0.86771493  1
  H  H15  1  0.32978126  0.26466747  0.86936046  1
  H  H16  1  0.30877365  0.57426125  0.58901454  1
  H  H17  1  0.90380300  0.99149840  0.18465264  1
  H  H18  1  0.68009725  0.29122498  0.14282266  1
  H  H19  1  0.28391648  0.99382566  0.15834450  1
  H  H20  1  0.28941023  0.00016249  0.58568193  1
