# generated using pymatgen
data_Sr2Nb3H13
_symmetry_space_group_name_H-M   'P 1'
_cell_length_a   3.46622691
_cell_length_b   6.85734027
_cell_length_c   7.90728428
_cell_angle_alpha   102.10112327
_cell_angle_beta   102.64632089
_cell_angle_gamma   89.81080154
_symmetry_Int_Tables_number   1
_chemical_formula_structural   Sr2Nb3H13
_chemical_formula_sum   'Sr2 Nb3 H13'
_cell_volume   179.13551622
_cell_formula_units_Z   1
loop_
 _symmetry_equiv_pos_site_id
 _symmetry_equiv_pos_as_xyz
  1  'x, y, z'
loop_
 _atom_site_type_symbol
 _atom_site_label
 _atom_site_symmetry_multiplicity
 _atom_site_fract_x
 _atom_site_fract_y
 _atom_site_fract_z
 _atom_site_occupancy
  Sr  Sr0  1  0.12817362  0.36593555  0.98547745  1
  Sr  Sr1  1  0.12221334  0.88674032  0.97825914  1
  Nb  Nb2  1  0.80610404  0.72440812  0.34997872  1
  Nb  Nb3  1  0.43979601  0.52597280  0.60116597  1
  Nb  Nb4  1  0.43075220  0.04655387  0.60195531  1
  H  H5  1  0.72139424  0.87182012  0.17928972  1
  H  H6  1  0.85003567  0.00755856  0.44206314  1
  H  H7  1  0.86808922  0.48911328  0.46497135  1
  H  H8  1  0.70074529  0.55218078  0.13433612  1
  H  H9  1  0.24513201  0.70044045  0.22645415  1
  H  H10  1  0.59504994  0.59602498  0.85066633  1
  H  H11  1  0.48188590  0.81850424  0.72637299  1
  H  H12  1  0.35249471  0.25029019  0.45167029  1
  H  H13  1  0.98963439  0.06861226  0.72013614  1
  H  H14  1  0.55040366  0.09559157  0.83710701  1
  H  H15  1  0.49642004  0.31540635  0.73014158  1
  H  H16  1  0.37080820  0.75031415  0.47702316  1
  H  H17  1  0.68487052  0.16148942  0.09063642  1
