# generated using pymatgen
data_H2
_symmetry_space_group_name_H-M   'P 1'
_cell_length_a   2.96391346
_cell_length_b   5.01965620
_cell_length_c   7.16940204
_cell_angle_alpha   81.53240161
_cell_angle_beta   95.39298623
_cell_angle_gamma   77.05002808
_symmetry_Int_Tables_number   1
_chemical_formula_structural   H2
_chemical_formula_sum   H14
_cell_volume   101.92298452
_cell_formula_units_Z   7
loop_
 _symmetry_equiv_pos_site_id
 _symmetry_equiv_pos_as_xyz
  1  'x, y, z'
loop_
 _atom_site_type_symbol
 _atom_site_label
 _atom_site_symmetry_multiplicity
 _atom_site_fract_x
 _atom_site_fract_y
 _atom_site_fract_z
 _atom_site_occupancy
  H  H0  1  0.31717963  0.62694705  0.17571926  1
  H  H1  1  0.12832812  0.54979833  0.17214987  1
  H  H2  1  0.97038087  0.15740186  0.44896202  1
  H  H3  1  0.12471577  0.24725115  0.47875053  1
  H  H4  1  0.82177787  0.10186658  0.12125477  1
  H  H5  1  0.48971556  0.09652328  0.12180925  1
  H  H6  1  0.15438875  0.10151579  0.11847743  1
  H  H7  1  0.68461782  0.66806457  0.47421550  1
  H  H8  1  0.78897635  0.78525882  0.49293841  1
  H  H9  1  0.57018876  0.81203985  0.81508811  1
  H  H10  1  0.55890373  0.61478747  0.81649425  1
  H  H11  1  0.56829883  0.21847145  0.79136472  1
  H  H12  1  0.55756708  0.41725852  0.80168812  1
  H  H13  1  0.57719185  0.01459828  0.79981476  1
