# generated using pymatgen
data_H2
_symmetry_space_group_name_H-M   'P 1'
_cell_length_a   3.27478889
_cell_length_b   6.84069462
_cell_length_c   10.25657017
_cell_angle_alpha   76.06702413
_cell_angle_beta   89.95189912
_cell_angle_gamma   89.98437695
_symmetry_Int_Tables_number   1
_chemical_formula_structural   H2
_chemical_formula_sum   H25
_cell_volume   223.00570969
_cell_formula_units_Z   12
loop_
 _symmetry_equiv_pos_site_id
 _symmetry_equiv_pos_as_xyz
  1  'x, y, z'
loop_
 _atom_site_type_symbol
 _atom_site_label
 _atom_site_symmetry_multiplicity
 _atom_site_fract_x
 _atom_site_fract_y
 _atom_site_fract_z
 _atom_site_occupancy
  H  H0  1  0.16392913  0.63953745  0.21030062  1
  H  H1  1  0.20497267  0.70303422  0.25958819  1
  H  H2  1  0.67657974  0.93457931  0.03185089  1
  H  H3  1  0.70936093  0.96733269  0.09610414  1
  H  H4  1  0.17904982  0.13004837  0.26116248  1
  H  H5  1  0.20751168  0.10132925  0.19556753  1
  H  H6  1  0.19582656  0.37921469  0.57258763  1
  H  H7  1  0.20274049  0.74222637  0.87222546  1
  H  H8  1  0.17841639  0.76606166  0.93973894  1
  H  H9  1  0.15392289  0.25014901  0.90981146  1
  H  H10  1  0.22633569  0.31986480  0.95151772  1
  H  H11  1  0.02830419  0.90735308  0.57690827  1
  H  H12  1  0.71998385  0.43976117  0.06640844  1
  H  H13  1  0.65978853  0.49531524  0.11838785  1
  H  H14  1  0.70119534  0.57309937  0.78419341  1
  H  H15  1  0.68567519  0.52631825  0.72493324  1
  H  H16  1  0.35361663  0.90725381  0.57697387  1
  H  H17  1  0.67872348  0.90514395  0.57877270  1
  H  H18  1  0.70552825  0.04617747  0.75991370  1
  H  H19  1  0.66456858  0.11466597  0.80576492  1
  H  H20  1  0.70515508  0.26795741  0.43038077  1
  H  H21  1  0.67968407  0.24033346  0.36418026  1
  H  H22  1  0.68517436  0.61380787  0.41452764  1
  H  H23  1  0.68686345  0.65919811  0.47452897  1
  H  H24  1  0.18085899  0.30401603  0.63827891  1
