# generated using pymatgen
data_H2
_symmetry_space_group_name_H-M   'P 1'
_cell_length_a   5.55876606
_cell_length_b   7.40072138
_cell_length_c   5.11762735
_cell_angle_alpha   102.20670725
_cell_angle_beta   101.04364659
_cell_angle_gamma   87.25052500
_symmetry_Int_Tables_number   1
_chemical_formula_structural   H2
_chemical_formula_sum   H23
_cell_volume   201.95680693
_cell_formula_units_Z   11
loop_
 _symmetry_equiv_pos_site_id
 _symmetry_equiv_pos_as_xyz
  1  'x, y, z'
loop_
 _atom_site_type_symbol
 _atom_site_label
 _atom_site_symmetry_multiplicity
 _atom_site_fract_x
 _atom_site_fract_y
 _atom_site_fract_z
 _atom_site_occupancy
  H  H0  1  0.74133681  0.02614513  0.22721673  1
  H  H1  1  0.76839695  0.95336760  0.31088088  1
  H  H2  1  0.79521091  0.74615304  0.74294545  1
  H  H3  1  0.84229033  0.80394926  0.65954626  1
  H  H4  1  0.26660477  0.62788819  0.27423633  1
  H  H5  1  0.29388218  0.70769938  0.21661199  1
  H  H6  1  0.24224583  0.02270611  0.38327272  1
  H  H7  1  0.23807929  0.02185369  0.17394906  1
  H  H8  1  0.23142089  0.01237551  0.77650621  1
  H  H9  1  0.23099620  0.01502845  0.97509832  1
  H  H10  1  0.64075963  0.18046286  0.85959770  1
  H  H11  1  0.37108356  0.60134219  0.78929213  1
  H  H12  1  0.58581214  0.26058250  0.94503921  1
  H  H13  1  0.34811197  0.68553466  0.72856950  1
  H  H14  1  0.23793185  0.01612651  0.58161501  1
  H  H15  1  0.81223071  0.60063366  0.09620841  1
  H  H16  1  0.70663099  0.60796709  0.16965120  1
  H  H17  1  0.57795502  0.40271608  0.43451461  1
  H  H18  1  0.54607414  0.30747389  0.44365621  1
  H  H19  1  0.07323799  0.33811828  0.94718314  1
  H  H20  1  0.07917771  0.36632289  0.81598594  1
  H  H21  1  0.07922533  0.41785028  0.42116364  1
  H  H22  1  0.00693981  0.33100274  0.36587236  1
