# generated using pymatgen
data_H2
_symmetry_space_group_name_H-M   'P 1'
_cell_length_a   2.90210291
_cell_length_b   5.58293434
_cell_length_c   9.17419381
_cell_angle_alpha   85.17900828
_cell_angle_beta   83.40713010
_cell_angle_gamma   74.84728915
_symmetry_Int_Tables_number   1
_chemical_formula_structural   H2
_chemical_formula_sum   H16
_cell_volume   142.29940521
_cell_formula_units_Z   8
loop_
 _symmetry_equiv_pos_site_id
 _symmetry_equiv_pos_as_xyz
  1  'x, y, z'
loop_
 _atom_site_type_symbol
 _atom_site_label
 _atom_site_symmetry_multiplicity
 _atom_site_fract_x
 _atom_site_fract_y
 _atom_site_fract_z
 _atom_site_occupancy
  H  H0  1  0.41393788  0.35201135  0.37792681  1
  H  H1  1  0.24827225  0.39011382  0.31850429  1
  H  H2  1  0.96772439  0.14162444  0.56341312  1
  H  H3  1  0.50940648  0.80803994  0.40880453  1
  H  H4  1  0.67737383  0.85395429  0.35200792  1
  H  H5  1  0.93117571  0.52842928  0.64879232  1
  H  H6  1  0.04289192  0.63398896  0.62605911  1
  H  H7  1  0.48503208  0.26206250  0.83965554  1
  H  H8  1  0.82902990  0.07452416  0.61884250  1
  H  H9  1  0.14280119  0.87053261  0.86979928  1
  H  H10  1  0.36050850  0.77115987  0.84605032  1
  H  H11  1  0.05320008  0.01579473  0.10508278  1
  H  H12  1  0.11530244  0.08479327  0.16349253  1
  H  H13  1  0.84570556  0.53972205  0.06787620  1
  H  H14  1  0.71745602  0.62212734  0.12790894  1
  H  H15  1  0.50085977  0.30285538  0.91417481  1
