# generated using pymatgen
data_SrNbH17
_symmetry_space_group_name_H-M   'P 1'
_cell_length_a   5.21214502
_cell_length_b   5.22298280
_cell_length_c   6.03341167
_cell_angle_alpha   86.58405063
_cell_angle_beta   89.06930340
_cell_angle_gamma   80.34105325
_symmetry_Int_Tables_number   1
_chemical_formula_structural   SrNbH17
_chemical_formula_sum   'Sr1 Nb1 H17'
_cell_volume   161.62790834
_cell_formula_units_Z   1
loop_
 _symmetry_equiv_pos_site_id
 _symmetry_equiv_pos_as_xyz
  1  'x, y, z'
loop_
 _atom_site_type_symbol
 _atom_site_label
 _atom_site_symmetry_multiplicity
 _atom_site_fract_x
 _atom_site_fract_y
 _atom_site_fract_z
 _atom_site_occupancy
  Sr  Sr0  1  0.20898349  0.56078037  0.27194664  1
  Nb  Nb1  1  0.71407937  0.64346209  0.81676148  1
  H  H2  1  0.31716804  0.17439229  0.53908662  1
  H  H3  1  0.37101809  0.26362526  0.61576384  1
  H  H4  1  0.59170732  0.09892762  0.27280158  1
  H  H5  1  0.72301518  0.14707164  0.27609638  1
  H  H6  1  0.47384459  0.72585646  0.59162263  1
  H  H7  1  0.74543032  0.28670225  0.88033585  1
  H  H8  1  0.90566986  0.31869658  0.89823159  1
  H  H9  1  0.39203661  0.91616685  0.84422048  1
  H  H10  1  0.44357802  0.93441840  0.96585609  1
  H  H11  1  0.90120772  0.91782822  0.67347018  1
  H  H12  1  0.45217204  0.47058799  0.90198436  1
  H  H13  1  0.05753552  0.52361765  0.82324909  1
  H  H14  1  0.88661687  0.84633424  0.96589091  1
  H  H15  1  0.81222627  0.89445213  0.57048806  1
  H  H16  1  0.81953949  0.46784393  0.57011403  1
  H  H17  1  0.70914255  0.58708997  0.11879459  1
  H  H18  1  0.18031766  0.06962306  0.25076358  1
