# generated using pymatgen
data_H2
_symmetry_space_group_name_H-M   'P 1'
_cell_length_a   5.73254466
_cell_length_b   5.77715807
_cell_length_c   7.37243692
_cell_angle_alpha   94.96658247
_cell_angle_beta   100.36170195
_cell_angle_gamma   111.24252360
_symmetry_Int_Tables_number   1
_chemical_formula_structural   H2
_chemical_formula_sum   H24
_cell_volume   220.77130488
_cell_formula_units_Z   12
loop_
 _symmetry_equiv_pos_site_id
 _symmetry_equiv_pos_as_xyz
  1  'x, y, z'
loop_
 _atom_site_type_symbol
 _atom_site_label
 _atom_site_symmetry_multiplicity
 _atom_site_fract_x
 _atom_site_fract_y
 _atom_site_fract_z
 _atom_site_occupancy
  H  H0  1  0.27640948  0.97223351  0.21310163  1
  H  H1  1  0.30499677  0.97189342  0.11782562  1
  H  H2  1  0.77859121  0.11082989  0.86192937  1
  H  H3  1  0.38888919  0.20449471  0.83093389  1
  H  H4  1  0.25153296  0.15209707  0.83864402  1
  H  H5  1  0.80180033  0.44157011  0.15857089  1
  H  H6  1  0.67843505  0.43125573  0.18475667  1
  H  H7  1  0.75904018  -0.00544345  0.17422826  1
  H  H8  1  0.80945310  0.89593718  0.14961583  1
  H  H9  1  0.22916596  0.39267639  0.16924022  1
  H  H10  1  0.25675875  0.52915385  0.16571645  1
  H  H11  1  0.35018485  0.71057564  0.78913631  1
  H  H12  1  0.80842975  0.66826222  0.84154226  1
  H  H13  1  0.39433845  0.66028981  0.87336263  1
  H  H14  1  0.93655150  0.66314234  0.83908692  1
  H  H15  1  0.84897828  0.19808104  0.80275984  1
  H  H16  1  0.10882449  0.85899697  0.51024281  1
  H  H17  1  0.15133411  0.75861363  0.47518454  1
  H  H18  1  0.63188636  0.81093767  0.54061016  1
  H  H19  1  0.63580055  0.80294779  0.43928192  1
  H  H20  1  0.55063843  0.23333102  0.52021608  1
  H  H21  1  0.57844653  0.36531578  0.50221322  1
  H  H22  1  0.12836948  0.29914145  0.51833341  1
  H  H23  1  -0.00364276  0.29946723  0.48879307  1
