# generated using pymatgen
data_H2
_symmetry_space_group_name_H-M   'P 1'
_cell_length_a   4.94079227
_cell_length_b   5.52585941
_cell_length_c   7.57350846
_cell_angle_alpha   77.82603851
_cell_angle_beta   76.34629317
_cell_angle_gamma   83.79736896
_symmetry_Int_Tables_number   1
_chemical_formula_structural   H2
_chemical_formula_sum   H23
_cell_volume   196.04110455
_cell_formula_units_Z   11
loop_
 _symmetry_equiv_pos_site_id
 _symmetry_equiv_pos_as_xyz
  1  'x, y, z'
loop_
 _atom_site_type_symbol
 _atom_site_label
 _atom_site_symmetry_multiplicity
 _atom_site_fract_x
 _atom_site_fract_y
 _atom_site_fract_z
 _atom_site_occupancy
  H  H0  1  0.31872723  0.49832012  0.33199000  1
  H  H1  1  0.97935500  0.79425327  0.51523793  1
  H  H2  1  0.78127651  0.78279478  0.51397188  1
  H  H3  1  0.82120283  0.22456370  0.54539577  1
  H  H4  1  0.47237609  0.46752253  0.30206961  1
  H  H5  1  0.92835274  0.24309763  0.20977377  1
  H  H6  1  0.40240939  0.10254537  0.16667055  1
  H  H7  1  0.97051280  0.35313444  0.13387965  1
  H  H8  1  0.96725999  0.75270358  0.19068582  1
  H  H9  1  0.49970294  0.98863600  0.16964116  1
  H  H10  1  0.37617534  0.82676593  0.51302629  1
  H  H11  1  0.17713557  0.82181456  0.51468928  1
  H  H12  1  0.57823039  0.80304596  0.51265466  1
  H  H13  1  0.73267661  0.28130519  0.90558297  1
  H  H14  1  0.75020579  0.39895794  0.83509210  1
  H  H15  1  0.74555427  0.79243869  0.91600562  1
  H  H16  1  0.71846518  0.86403067  0.82550223  1
  H  H17  1  0.31170561  0.04848905  0.80235486  1
  H  H18  1  0.04176494  0.83983174  0.10759774  1
  H  H19  1  0.28724793  0.59215386  0.86772176  1
  H  H20  1  0.22447466  0.54170745  0.80315447  1
  H  H21  1  0.17753662  0.12703255  0.81549867  1
  H  H22  1  0.66981558  0.24301199  0.54093222  1
