# generated using pymatgen
data_SrNbH18
_symmetry_space_group_name_H-M   'P 1'
_cell_length_a   4.76036668
_cell_length_b   6.84223871
_cell_length_c   5.64438167
_cell_angle_alpha   89.89071650
_cell_angle_beta   93.70683338
_cell_angle_gamma   86.72547075
_symmetry_Int_Tables_number   1
_chemical_formula_structural   SrNbH18
_chemical_formula_sum   'Sr1 Nb1 H18'
_cell_volume   183.15929294
_cell_formula_units_Z   1
loop_
 _symmetry_equiv_pos_site_id
 _symmetry_equiv_pos_as_xyz
  1  'x, y, z'
loop_
 _atom_site_type_symbol
 _atom_site_label
 _atom_site_symmetry_multiplicity
 _atom_site_fract_x
 _atom_site_fract_y
 _atom_site_fract_z
 _atom_site_occupancy
  Sr  Sr0  1  0.22791292  0.34715234  0.86826830  1
  Nb  Nb1  1  0.70721005  0.47832077  0.41488367  1
  H  H2  1  0.65682393  0.97390090  0.93977064  1
  H  H3  1  0.65391194  0.98468263  0.80612956  1
  H  H4  1  0.24889092  0.74587722  0.94662529  1
  H  H5  1  0.13104009  0.75368954  0.84904898  1
  H  H6  1  0.09040968  0.98736138  0.60705087  1
  H  H7  1  0.25353018  0.99359165  0.17641515  1
  H  H8  1  0.34730421  0.06320139  0.24783315  1
  H  H9  1  0.44283636  0.54647344  0.16854362  1
  H  H10  1  0.55364248  0.24240530  0.48423341  1
  H  H11  1  0.81826421  0.69820365  0.19872277  1
  H  H12  1  0.96818297  0.64422416  0.23908712  1
  H  H13  1  0.92062667  0.63252469  0.60251484  1
  H  H14  1  0.52335530  0.73470199  0.50644736  1
  H  H15  1  0.41180449  0.66216910  0.55315623  1
  H  H16  1  0.06721625  0.37278118  0.44744084  1
  H  H17  1  0.79281396  0.32130861  0.15772548  1
  H  H18  1  0.00616669  0.07607893  0.55451475  1
  H  H19  1  0.69807672  0.42899613  0.73345296  1
