# generated using pymatgen
data_H2
_symmetry_space_group_name_H-M   'P 1'
_cell_length_a   5.03843458
_cell_length_b   5.04231492
_cell_length_c   7.67806768
_cell_angle_alpha   72.89598532
_cell_angle_beta   77.51878856
_cell_angle_gamma   86.33916640
_symmetry_Int_Tables_number   1
_chemical_formula_structural   H2
_chemical_formula_sum   H24
_cell_volume   182.03087475
_cell_formula_units_Z   12
loop_
 _symmetry_equiv_pos_site_id
 _symmetry_equiv_pos_as_xyz
  1  'x, y, z'
loop_
 _atom_site_type_symbol
 _atom_site_label
 _atom_site_symmetry_multiplicity
 _atom_site_fract_x
 _atom_site_fract_y
 _atom_site_fract_z
 _atom_site_occupancy
  H  H0  1  0.88761810  0.30845936  0.50849262  1
  H  H1  1  0.74202489  0.35159440  0.53224459  1
  H  H2  1  0.31028079  0.47392562  0.33062276  1
  H  H3  1  0.44304850  0.40490646  0.30385404  1
  H  H4  1  0.30239468  0.56080703  0.93759953  1
  H  H5  1  0.20252754  0.58122155  0.87518031  1
  H  H6  1  0.33164674  0.08876459  0.73248871  1
  H  H7  1  0.24657734  0.20530219  0.75739411  1
  H  H8  1  0.75333394  0.89473242  0.87739878  1
  H  H9  1  0.75132287  0.69776163  0.87491718  1
  H  H10  1  0.75721401  0.29537875  0.87436847  1
  H  H11  1  0.75165060  0.49260681  0.87632875  1
  H  H12  1  0.34473028  0.07691668  0.14978904  1
  H  H13  1  0.43248135  0.95044242  0.17000563  1
  H  H14  1  0.75464712  0.09759664  0.87379855  1
  H  H15  1  0.37573039  0.80801172  0.52830870  1
  H  H16  1  0.17919619  0.80606627  0.52746920  1
  H  H17  1  0.57760490  0.81358870  0.52699427  1
  H  H18  1  0.97227293  0.81215988  0.52906714  1
  H  H19  1  0.78000521  0.81412823  0.52632867  1
  H  H20  1  0.86035092  0.15706060  0.20015900  1
  H  H21  1  0.92223317  0.29713803  0.17874594  1
  H  H22  1  0.86384289  0.70235297  0.20956170  1
  H  H23  1  0.00147967  0.76581403  0.16436233  1
