# generated using pymatgen
data_Sr3NbH17
_symmetry_space_group_name_H-M   'P 1'
_cell_length_a   5.78533513
_cell_length_b   7.12913954
_cell_length_c   6.58906641
_cell_angle_alpha   95.62474454
_cell_angle_beta   117.14102332
_cell_angle_gamma   83.84983400
_symmetry_Int_Tables_number   1
_chemical_formula_structural   Sr3NbH17
_chemical_formula_sum   'Sr3 Nb1 H17'
_cell_volume   240.07472330
_cell_formula_units_Z   1
loop_
 _symmetry_equiv_pos_site_id
 _symmetry_equiv_pos_as_xyz
  1  'x, y, z'
loop_
 _atom_site_type_symbol
 _atom_site_label
 _atom_site_symmetry_multiplicity
 _atom_site_fract_x
 _atom_site_fract_y
 _atom_site_fract_z
 _atom_site_occupancy
  Sr  Sr0  1  0.16071026  0.50262010  0.76017568  1
  Sr  Sr1  1  0.86420733  0.99874175  0.04845337  1
  Sr  Sr2  1  0.50211831  0.72206005  0.41777110  1
  Nb  Nb3  1  0.86613351  0.50062475  0.13487598  1
  H  H4  1  0.60891347  0.09679600  0.33387597  1
  H  H5  1  0.48278879  0.09079168  0.34373547  1
  H  H6  1  0.07545961  0.65545708  0.07879161  1
  H  H7  1  0.55395842  0.66642238  0.05342003  1
  H  H8  1  0.30730581  0.96538375  0.90624747  1
  H  H9  1  0.59689380  0.32780345  0.99235746  1
  H  H10  1  0.70450516  0.53562552  0.80971550  1
  H  H11  1  0.04781970  0.32914950  0.01274955  1
  H  H12  1  0.34598604  0.06381700  0.95991818  1
  H  H13  1  0.91307724  0.83663198  0.72109653  1
  H  H14  1  0.99624511  0.14231691  0.66353297  1
  H  H15  1  0.92715822  0.20348533  0.56244499  1
  H  H16  1  0.23549439  -0.00446745  0.39504977  1
  H  H17  1  0.96721200  0.28352676  0.27320496  1
  H  H18  1  0.92828339  0.72084960  0.32380164  1
  H  H19  1  0.76983149  0.47046275  0.36204252  1
  H  H20  1  0.20089096  0.48228813  0.37778124  1
