# generated using pymatgen
data_Sr2NbH8
_symmetry_space_group_name_H-M   'P 1'
_cell_length_a   3.50678728
_cell_length_b   3.56901252
_cell_length_c   12.52398152
_cell_angle_alpha   84.91586752
_cell_angle_beta   86.29198635
_cell_angle_gamma   59.66937633
_symmetry_Int_Tables_number   1
_chemical_formula_structural   Sr2NbH8
_chemical_formula_sum   'Sr2 Nb1 H8'
_cell_volume   134.72411543
_cell_formula_units_Z   1
loop_
 _symmetry_equiv_pos_site_id
 _symmetry_equiv_pos_as_xyz
  1  'x, y, z'
loop_
 _atom_site_type_symbol
 _atom_site_label
 _atom_site_symmetry_multiplicity
 _atom_site_fract_x
 _atom_site_fract_y
 _atom_site_fract_z
 _atom_site_occupancy
  Sr  Sr0  1  0.90630461  0.27478234  0.72199817  1
  Sr  Sr1  1  0.21610248  0.54063594  0.98755184  1
  Nb  Nb2  1  0.51440398  0.82800829  0.20864946  1
  H  H3  1  0.07730553  0.27542620  0.48118221  1
  H  H4  1  0.82926459  0.38641758  0.47406035  1
  H  H5  1  0.04153673  0.75049159  0.58794637  1
  H  H6  1  0.76721004  0.88801556  0.58576634  1
  H  H7  1  0.23143792  0.59456065  0.78226471  1
  H  H8  1  0.17777795  0.47998620  0.26373342  1
  H  H9  1  0.55896921  0.90694724  0.86585406  1
  H  H10  1  0.84966595  0.17959943  0.15231908  1
