# generated using pymatgen
data_SrNb2H21
_symmetry_space_group_name_H-M   'P 1'
_cell_length_a   5.35313860
_cell_length_b   5.93553761
_cell_length_c   6.75362761
_cell_angle_alpha   103.69318045
_cell_angle_beta   103.48124583
_cell_angle_gamma   83.42583398
_symmetry_Int_Tables_number   1
_chemical_formula_structural   SrNb2H21
_chemical_formula_sum   'Sr1 Nb2 H21'
_cell_volume   202.34452194
_cell_formula_units_Z   1
loop_
 _symmetry_equiv_pos_site_id
 _symmetry_equiv_pos_as_xyz
  1  'x, y, z'
loop_
 _atom_site_type_symbol
 _atom_site_label
 _atom_site_symmetry_multiplicity
 _atom_site_fract_x
 _atom_site_fract_y
 _atom_site_fract_z
 _atom_site_occupancy
  Sr  Sr0  1  0.44641078  0.50530929  0.00369994  1
  Nb  Nb1  1  0.09444164  0.56237513  0.44755108  1
  Nb  Nb2  1  0.57296255  0.80652586  0.59820022  1
  H  H3  1  0.11007516  0.19623481  0.82692980  1
  H  H4  1  0.07920116  0.23695231  0.93474965  1
  H  H5  1  0.57318976  0.12833866  0.57055759  1
  H  H6  1  0.55426617  0.08685014  0.78988830  1
  H  H7  1  0.08758556  0.88068024  0.99389345  1
  H  H8  1  0.15535912  0.89831207  0.10774459  1
  H  H9  1  0.70004968  0.73859161  0.85330435  1
  H  H10  1  0.89663988  0.90520752  0.69003102  1
  H  H11  1  0.74071361  0.72197914  0.36357863  1
  H  H12  1  0.62429385  0.05726786  0.46548276  1
  H  H13  1  0.23104563  0.30662601  0.30081928  1
  H  H14  1  0.98622801  0.24162363  0.34520439  1
  H  H15  1  0.95863120  0.51475340  0.15970922  1
  H  H16  1  0.86063554  0.30285003  0.39386649  1
  H  H17  1  0.84381727  0.56879911  0.62013956  1
  H  H18  1  0.52306916  0.11333680  0.17392944  1
  H  H19  1  0.57603985  0.06143585  0.07621126  1
  H  H20  1  0.20811094  0.36962254  0.62252874  1
  H  H21  1  0.45172330  0.50511149  0.46352747  1
  H  H22  1  0.29671876  0.74954850  0.71180143  1
  H  H23  1  0.23110142  0.85096499  0.42886434  1
