# generated using pymatgen
data_SrNbH22
_symmetry_space_group_name_H-M   'P 1'
_cell_length_a   5.43748353
_cell_length_b   5.27227204
_cell_length_c   7.29850331
_cell_angle_alpha   93.86459020
_cell_angle_beta   89.59230096
_cell_angle_gamma   90.14223565
_symmetry_Int_Tables_number   1
_chemical_formula_structural   SrNbH22
_chemical_formula_sum   'Sr1 Nb1 H22'
_cell_volume   208.75123247
_cell_formula_units_Z   1
loop_
 _symmetry_equiv_pos_site_id
 _symmetry_equiv_pos_as_xyz
  1  'x, y, z'
loop_
 _atom_site_type_symbol
 _atom_site_label
 _atom_site_symmetry_multiplicity
 _atom_site_fract_x
 _atom_site_fract_y
 _atom_site_fract_z
 _atom_site_occupancy
  Sr  Sr0  1  0.47924995  0.39952372  0.42050320  1
  Nb  Nb1  1  0.98359207  0.94231493  0.46923978  1
  H  H2  1  0.05711529  0.79970902  0.72085644  1
  H  H3  1  0.90680169  0.79355516  0.71934489  1
  H  H4  1  0.98372768  0.59639252  0.41936303  1
  H  H5  1  0.98948355  0.20097718  0.31679524  1
  H  H6  1  0.99084982  0.94937555  0.20912902  1
  H  H7  1  0.99389011  0.79009767  0.22328479  1
  H  H8  1  0.79146181  0.18371092  0.59599641  1
  H  H9  1  0.30501686  0.03547342  0.03454114  1
  H  H10  1  0.55875288  0.81341168  0.63060343  1
  H  H11  1  0.67640553  0.93162096  0.36839267  1
  H  H12  1  0.04814282  0.50845298  0.00701460  1
  H  H13  1  0.04258155  0.43976515  0.91345320  1
  H  H14  1  0.16719332  0.18358618  0.60255367  1
  H  H15  1  0.27785279  0.08772067  0.94375293  1
  H  H16  1  0.75597993  0.11535408  0.02532585  1
  H  H17  1  0.52617966  0.60190008  0.04934364  1
  H  H18  1  0.56820233  0.70186724  0.12063386  1
  H  H19  1  0.42225620  0.42551122  0.78233875  1
  H  H20  1  0.55920413  0.40381742  0.77546391  1
  H  H21  1  0.29541565  0.93495337  0.37518965  1
  H  H22  1  0.74746957  0.11065251  0.92236398  1
  H  H23  1  0.40931980  0.81409738  0.63028692  1
