# generated using pymatgen
data_H2
_symmetry_space_group_name_H-M   'P 1'
_cell_length_a   5.11580660
_cell_length_b   5.44581802
_cell_length_c   6.90260955
_cell_angle_alpha   70.62911712
_cell_angle_beta   72.43749955
_cell_angle_gamma   81.98995847
_symmetry_Int_Tables_number   1
_chemical_formula_structural   H2
_chemical_formula_sum   H18
_cell_volume   172.79774796
_cell_formula_units_Z   9
loop_
 _symmetry_equiv_pos_site_id
 _symmetry_equiv_pos_as_xyz
  1  'x, y, z'
loop_
 _atom_site_type_symbol
 _atom_site_label
 _atom_site_symmetry_multiplicity
 _atom_site_fract_x
 _atom_site_fract_y
 _atom_site_fract_z
 _atom_site_occupancy
  H  H0  1  0.48933962  0.72758384  0.21136296  1
  H  H1  1  0.53197253  0.80679565  0.26628019  1
  H  H2  1  0.00397879  0.90911737  0.01103237  1
  H  H3  1  0.09414537  0.93456329  0.06951601  1
  H  H4  1  0.83985051  0.51655414  0.93602125  1
  H  H5  1  0.97823288  0.48616253  0.55774657  1
  H  H6  1  0.49817864  0.31963179  0.75882732  1
  H  H7  1  0.95602653  0.42007229  0.91503266  1
  H  H8  1  0.23311581  0.40613171  0.12537969  1
  H  H9  1  0.33866782  0.31095725  0.16737970  1
  H  H10  1  0.64045500  0.23811761  0.39536225  1
  H  H11  1  0.49190440  0.17742941  0.77488849  1
  H  H12  1  0.59618093  0.77761774  0.68713399  1
  H  H13  1  0.06736542  0.03106215  0.57077569  1
  H  H14  1  0.10849287  0.89539405  0.56552238  1
  H  H15  1  0.45705693  0.75322601  0.76507711  1
  H  H16  1  0.73134364  0.16436191  0.32396495  1
  H  H17  1  0.01344532  0.51996225  0.43863740  1
