# generated using pymatgen
data_H2
_symmetry_space_group_name_H-M   'P 1'
_cell_length_a   2.94714309
_cell_length_b   6.93590153
_cell_length_c   6.94550999
_cell_angle_alpha   98.84573336
_cell_angle_beta   97.41783403
_cell_angle_gamma   98.43730126
_symmetry_Int_Tables_number   1
_chemical_formula_structural   H2
_chemical_formula_sum   H18
_cell_volume   137.08605404
_cell_formula_units_Z   9
loop_
 _symmetry_equiv_pos_site_id
 _symmetry_equiv_pos_as_xyz
  1  'x, y, z'
loop_
 _atom_site_type_symbol
 _atom_site_label
 _atom_site_symmetry_multiplicity
 _atom_site_fract_x
 _atom_site_fract_y
 _atom_site_fract_z
 _atom_site_occupancy
  H  H0  1  0.72184726  0.75187584  0.45347795  1
  H  H1  1  0.53880847  0.79760605  0.40119619  1
  H  H2  1  0.99385340  0.48368957  0.64181822  1
  H  H3  1  0.16385106  0.51493099  0.57714961  1
  H  H4  1  0.86710173  0.61907076  0.98015835  1
  H  H5  1  0.65004695  0.65549720  0.94385869  1
  H  H6  1  0.14624633  0.10063085  0.51360183  1
  H  H7  1  0.36394662  0.17474408  0.52544428  1
  H  H8  1  0.76726450  0.26402885  0.86963391  1
  H  H9  1  0.96244342  0.20800357  0.85762619  1
  H  H10  1  0.19259509  0.87688698  0.81176172  1
  H  H11  1  0.37046237  0.89422340  0.74585671  1
  H  H12  1  0.91781392  0.01003929  0.15528563  1
  H  H13  1  0.24954435  0.00984562  0.15554553  1
  H  H14  1  0.13759042  0.41785859  0.22269380  1
  H  H15  1  0.80549652  0.41684747  0.22327371  1
  H  H16  1  0.46909482  0.41641519  0.22218460  1
  H  H17  1  0.58574776  0.01063170  0.15644611  1
