# generated using pymatgen
data_SrNbH7
_symmetry_space_group_name_H-M   'P 1'
_cell_length_a   3.69678318
_cell_length_b   3.78100309
_cell_length_c   7.28087623
_cell_angle_alpha   119.90684288
_cell_angle_beta   104.47201707
_cell_angle_gamma   89.92662854
_symmetry_Int_Tables_number   1
_chemical_formula_structural   SrNbH7
_chemical_formula_sum   'Sr1 Nb1 H7'
_cell_volume   84.49082560
_cell_formula_units_Z   1
loop_
 _symmetry_equiv_pos_site_id
 _symmetry_equiv_pos_as_xyz
  1  'x, y, z'
loop_
 _atom_site_type_symbol
 _atom_site_label
 _atom_site_symmetry_multiplicity
 _atom_site_fract_x
 _atom_site_fract_y
 _atom_site_fract_z
 _atom_site_occupancy
  Sr  Sr0  1  0.03299192  0.60718128  0.84520589  1
  Nb  Nb1  1  0.76401315  0.49099333  0.24214924  1
  H  H2  1  0.40601389  0.22307265  0.58634254  1
  H  H3  1  0.39049373  0.40504990  0.56486528  1
  H  H4  1  0.12308515  0.33502518  0.08615088  1
  H  H5  1  0.27512431  0.62561702  0.38449543  1
  H  H6  1  0.87388095  0.82284757  0.55750085  1
  H  H7  1  0.69665717  0.90335522  0.14994474  1
  H  H8  1  0.54884173  0.18117484  0.91820515  1
