# generated using pymatgen
data_H2
_symmetry_space_group_name_H-M   'P 1'
_cell_length_a   2.60706937
_cell_length_b   7.28495823
_cell_length_c   7.28088163
_cell_angle_alpha   93.28843761
_cell_angle_beta   95.83290893
_cell_angle_gamma   86.07330298
_symmetry_Int_Tables_number   1
_chemical_formula_structural   H2
_chemical_formula_sum   H17
_cell_volume   137.06537097
_cell_formula_units_Z   8
loop_
 _symmetry_equiv_pos_site_id
 _symmetry_equiv_pos_as_xyz
  1  'x, y, z'
loop_
 _atom_site_type_symbol
 _atom_site_label
 _atom_site_symmetry_multiplicity
 _atom_site_fract_x
 _atom_site_fract_y
 _atom_site_fract_z
 _atom_site_occupancy
  H  H0  1  0.78362040  0.36379042  0.78348353  1
  H  H1  1  0.76916033  0.30992637  0.69261675  1
  H  H2  1  0.23495084  0.66378304  0.73108534  1
  H  H3  1  0.21372682  0.60113644  0.61375474  1
  H  H4  1  0.64503742  0.57077677  0.12542449  1
  H  H5  1  0.58801132  0.50912123  0.19909592  1
  H  H6  1  0.30312875  0.25024012  0.04030414  1
  H  H7  1  0.30900148  0.93706299  0.72344185  1
  H  H8  1  0.30232816  0.03970141  0.74114642  1
  H  H9  1  0.44800456  0.15876502  0.02709903  1
  H  H10  1  0.19717495  0.53029955  0.50362363  1
  H  H11  1  0.11504619  0.25971614  0.40976446  1
  H  H12  1  0.11413309  0.17733888  0.34279223  1
  H  H13  1  0.64146295  0.81572272  0.38227255  1
  H  H14  1  0.68706253  0.90668480  0.43255821  1
  H  H15  1  0.00233222  0.87452151  0.10239812  1
  H  H16  1  0.97802799  0.84143459  0.00285756  1
