# generated using pymatgen
data_H2
_symmetry_space_group_name_H-M   'P 1'
_cell_length_a   3.03855295
_cell_length_b   5.13937490
_cell_length_c   6.50013304
_cell_angle_alpha   101.86055994
_cell_angle_beta   84.84665112
_cell_angle_gamma   99.45762518
_symmetry_Int_Tables_number   1
_chemical_formula_structural   H2
_chemical_formula_sum   H13
_cell_volume   97.82505956
_cell_formula_units_Z   6
loop_
 _symmetry_equiv_pos_site_id
 _symmetry_equiv_pos_as_xyz
  1  'x, y, z'
loop_
 _atom_site_type_symbol
 _atom_site_label
 _atom_site_symmetry_multiplicity
 _atom_site_fract_x
 _atom_site_fract_y
 _atom_site_fract_z
 _atom_site_occupancy
  H  H0  1  0.14806840  0.44498515  0.16133199  1
  H  H1  1  0.11821769  0.29419583  0.13315359  1
  H  H2  1  0.56548415  0.69210992  0.50539181  1
  H  H3  1  0.71427271  0.59824398  0.44244568  1
  H  H4  1  0.64923379  0.85283382  0.12486927  1
  H  H5  1  0.80195314  0.76494044  0.05748378  1
  H  H6  1  0.35922256  0.11097606  0.43618614  1
  H  H7  1  0.69596792  0.12396990  0.44175332  1
  H  H8  1  0.97484738  0.50769196  0.74365034  1
  H  H9  1  0.13541757  0.44955195  0.79579368  1
  H  H10  1  0.32626876  0.99114040  0.79235063  1
  H  H11  1  0.53724775  0.07500062  0.83411391  1
  H  H12  1  0.02398617  0.11086096  0.44311687  1
