# generated using pymatgen
data_H2
_symmetry_space_group_name_H-M   'P 1'
_cell_length_a   4.93909219
_cell_length_b   5.65093404
_cell_length_c   7.42533242
_cell_angle_alpha   81.22058566
_cell_angle_beta   81.61252111
_cell_angle_gamma   88.23001455
_symmetry_Int_Tables_number   1
_chemical_formula_structural   H2
_chemical_formula_sum   H23
_cell_volume   202.61784682
_cell_formula_units_Z   11
loop_
 _symmetry_equiv_pos_site_id
 _symmetry_equiv_pos_as_xyz
  1  'x, y, z'
loop_
 _atom_site_type_symbol
 _atom_site_label
 _atom_site_symmetry_multiplicity
 _atom_site_fract_x
 _atom_site_fract_y
 _atom_site_fract_z
 _atom_site_occupancy
  H  H0  1  0.68367519  0.52279436  0.28765148  1
  H  H1  1  0.83000229  0.48368350  0.28442760  1
  H  H2  1  0.63666233  0.58840774  0.87204508  1
  H  H3  1  0.52004079  0.56131594  0.82659934  1
  H  H4  1  0.75046497  0.08650848  0.18070481  1
  H  H5  1  0.85524536  0.98958389  0.17487258  1
  H  H6  1  0.27114366  0.75812509  0.18674819  1
  H  H7  1  0.37590738  0.83118960  0.11991471  1
  H  H8  1  0.07908846  0.82275480  0.89796655  1
  H  H9  1  0.02130305  0.90010896  0.82232651  1
  H  H10  1  0.71713769  0.79310313  0.52054782  1
  H  H11  1  0.51783833  0.79298262  0.52075301  1
  H  H12  1  0.11639751  0.78320704  0.51967475  1
  H  H13  1  0.91709307  0.78750678  0.52042935  1
  H  H14  1  0.31671913  0.78732738  0.51930969  1
  H  H15  1  0.29110569  0.24468624  0.22957877  1
  H  H16  1  0.34909543  0.33288206  0.14972250  1
  H  H17  1  0.62183614  0.07926653  0.81356378  1
  H  H18  1  0.47663405  0.11704675  0.80706751  1
  H  H19  1  0.04829851  0.31874125  0.92858307  1
  H  H20  1  0.07308841  0.41395233  0.84878578  1
  H  H21  1  0.13314012  0.21760803  0.54814071  1
  H  H22  1  0.98346543  0.23575050  0.54371341  1
