# generated using pymatgen
data_H2
_symmetry_space_group_name_H-M   'P 1'
_cell_length_a   4.80471350
_cell_length_b   5.42747105
_cell_length_c   7.31696120
_cell_angle_alpha   80.76536404
_cell_angle_beta   73.01648600
_cell_angle_gamma   57.60808565
_symmetry_Int_Tables_number   1
_chemical_formula_structural   H2
_chemical_formula_sum   H17
_cell_volume   154.09018641
_cell_formula_units_Z   8
loop_
 _symmetry_equiv_pos_site_id
 _symmetry_equiv_pos_as_xyz
  1  'x, y, z'
loop_
 _atom_site_type_symbol
 _atom_site_label
 _atom_site_symmetry_multiplicity
 _atom_site_fract_x
 _atom_site_fract_y
 _atom_site_fract_z
 _atom_site_occupancy
  H  H0  1  0.97244369  0.47507637  0.57893845  1
  H  H1  1  0.91922776  0.63041796  0.55173492  1
  H  H2  1  0.64885059  0.16710693  0.55027802  1
  H  H3  1  0.66688821  0.16176952  0.44568021  1
  H  H4  1  0.33201129  0.88168906  0.42055915  1
  H  H5  1  0.44503062  0.71844448  0.42306457  1
  H  H6  1  0.08475448  0.74411165  0.20329662  1
  H  H7  1  0.93789928  0.85879581  0.16319025  1
  H  H8  1  0.04584458  0.31551655  0.08833237  1
  H  H9  1  0.26503953  0.12818462  0.07841797  1
  H  H10  1  0.41933992  0.48416339  0.85129468  1
  H  H11  1  0.30915181  0.52503395  0.78463989  1
  H  H12  1  0.98200779  0.13741136  0.82201332  1
  H  H13  1  0.15120172  0.01154083  0.77497119  1
  H  H14  1  0.47380432  0.92362716  0.05596202  1
  H  H15  1  0.65241265  0.71422458  0.05173344  1
  H  H16  1  0.83654377  0.50760278  0.07246395  1
