# generated using pymatgen
data_H2
_symmetry_space_group_name_H-M   'P 1'
_cell_length_a   3.10615649
_cell_length_b   5.33996539
_cell_length_c   8.72766765
_cell_angle_alpha   89.82443824
_cell_angle_beta   87.36046658
_cell_angle_gamma   80.59019176
_symmetry_Int_Tables_number   1
_chemical_formula_structural   H2
_chemical_formula_sum   H17
_cell_volume   142.66289786
_cell_formula_units_Z   8
loop_
 _symmetry_equiv_pos_site_id
 _symmetry_equiv_pos_as_xyz
  1  'x, y, z'
loop_
 _atom_site_type_symbol
 _atom_site_label
 _atom_site_symmetry_multiplicity
 _atom_site_fract_x
 _atom_site_fract_y
 _atom_site_fract_z
 _atom_site_occupancy
  H  H0  1  0.53997585  0.51592338  0.19922552  1
  H  H1  1  0.34314157  0.58166578  0.24460726  1
  H  H2  1  0.96558901  0.01148272  0.74280200  1
  H  H3  1  0.84179042  0.08348654  0.68038382  1
  H  H4  1  0.02835065  0.82353391  0.98754974  1
  H  H5  1  0.69216737  0.82858471  0.99104589  1
  H  H6  1  0.36015009  0.82662201  0.98521307  1
  H  H7  1  0.21464872  0.33541378  0.47131156  1
  H  H8  1  0.29990258  0.39102717  0.54031434  1
  H  H9  1  0.27186648  0.29841600  -0.00326117  1
  H  H10  1  0.16849355  0.32833986  0.92146818  1
  H  H11  1  0.88791844  0.11710860  0.27629209  1
  H  H12  1  0.07302152  0.06581025  0.22085334  1
  H  H13  1  0.64401883  0.52997049  0.77046750  1
  H  H14  1  0.71928585  0.61000565  0.70715645  1
  H  H15  1  0.62561828  0.81003385  0.43946118  1
  H  H16  1  0.45160479  0.86360629  0.49842923  1
