# generated using pymatgen
data_Sr2NbH7
_symmetry_space_group_name_H-M   'P 1'
_cell_length_a   3.27089253
_cell_length_b   6.45867709
_cell_length_c   7.24151881
_cell_angle_alpha   82.13139535
_cell_angle_beta   116.19944827
_cell_angle_gamma   104.36418158
_symmetry_Int_Tables_number   1
_chemical_formula_structural   Sr2NbH7
_chemical_formula_sum   'Sr2 Nb1 H7'
_cell_volume   132.90770485
_cell_formula_units_Z   1
loop_
 _symmetry_equiv_pos_site_id
 _symmetry_equiv_pos_as_xyz
  1  'x, y, z'
loop_
 _atom_site_type_symbol
 _atom_site_label
 _atom_site_symmetry_multiplicity
 _atom_site_fract_x
 _atom_site_fract_y
 _atom_site_fract_z
 _atom_site_occupancy
  Sr  Sr0  1  0.31083399  0.43682708  0.64068455  1
  Sr  Sr1  1  0.59469633  0.11021431  0.07798215  1
  Nb  Nb2  1  0.43594368  0.57540650  0.18914143  1
  H  H3  1  0.43574921  0.30695023  0.32947820  1
  H  H4  1  0.73973091  0.64552320  0.46577571  1
  H  H5  1  0.12831113  0.38458929  0.97330184  1
  H  H6  1  0.20054597  0.75857938  0.81923653  1
  H  H7  1  0.10181071  0.80452242  0.70347517  1
  H  H8  1  0.79202983  0.13546660  0.76383548  1
  H  H9  1  0.98885725  0.77695600  0.14058993  1
