# generated using pymatgen
data_SrNbH6
_symmetry_space_group_name_H-M   'P 1'
_cell_length_a   3.57430038
_cell_length_b   8.37320641
_cell_length_c   3.47777676
_cell_angle_alpha   98.21061023
_cell_angle_beta   59.00821085
_cell_angle_gamma   77.69343435
_symmetry_Int_Tables_number   1
_chemical_formula_structural   SrNbH6
_chemical_formula_sum   'Sr1 Nb1 H6'
_cell_volume   83.11689964
_cell_formula_units_Z   1
loop_
 _symmetry_equiv_pos_site_id
 _symmetry_equiv_pos_as_xyz
  1  'x, y, z'
loop_
 _atom_site_type_symbol
 _atom_site_label
 _atom_site_symmetry_multiplicity
 _atom_site_fract_x
 _atom_site_fract_y
 _atom_site_fract_z
 _atom_site_occupancy
  Sr  Sr0  1  0.81742990  0.88951794  0.26829733  1
  Nb  Nb1  1  0.11744037  0.27768186  0.28067980  1
  H  H2  1  0.98424553  0.53476937  0.51189884  1
  H  H3  1  0.75705614  0.53393003  0.51206666  1
  H  H4  1  0.71774111  0.34612912  0.01247753  1
  H  H5  1  0.34038167  0.03757782  0.07483607  1
  H  H6  1  0.51015866  0.21726411  0.55571585  1
  H  H7  1  0.28768663  0.74774174  0.46871692  1
