# generated using pymatgen
data_SrNbH6
_symmetry_space_group_name_H-M   'P 1'
_cell_length_a   3.51764376
_cell_length_b   6.64848683
_cell_length_c   3.52161529
_cell_angle_alpha   89.84455146
_cell_angle_beta   90.45374329
_cell_angle_gamma   121.89772466
_symmetry_Int_Tables_number   1
_chemical_formula_structural   SrNbH6
_chemical_formula_sum   'Sr1 Nb1 H6'
_cell_volume   69.92077777
_cell_formula_units_Z   1
loop_
 _symmetry_equiv_pos_site_id
 _symmetry_equiv_pos_as_xyz
  1  'x, y, z'
loop_
 _atom_site_type_symbol
 _atom_site_label
 _atom_site_symmetry_multiplicity
 _atom_site_fract_x
 _atom_site_fract_y
 _atom_site_fract_z
 _atom_site_occupancy
  Sr  Sr0  1  0.98366646  0.60591395  0.75711653  1
  Nb  Nb1  1  0.95332556  0.10604830  0.28712929  1
  H  H2  1  0.79807307  0.93235079  0.73508539  1
  H  H3  1  0.33079049  0.93231923  0.27309501  1
  H  H4  1  0.33500363  0.43914483  0.23760763  1
  H  H5  1  0.67755980  0.27951731  0.26825070  1
  H  H6  1  0.66996772  0.77278539  0.23561308  1
  H  H7  1  0.14450627  0.27973520  0.73591535  1
