# generated using pymatgen
data_SrNbH9
_symmetry_space_group_name_H-M   'P 1'
_cell_length_a   3.25902540
_cell_length_b   3.71700806
_cell_length_c   10.01971953
_cell_angle_alpha   96.64234028
_cell_angle_beta   108.57323821
_cell_angle_gamma   90.00892916
_symmetry_Int_Tables_number   1
_chemical_formula_structural   SrNbH9
_chemical_formula_sum   'Sr1 Nb1 H9'
_cell_volume   114.19489356
_cell_formula_units_Z   1
loop_
 _symmetry_equiv_pos_site_id
 _symmetry_equiv_pos_as_xyz
  1  'x, y, z'
loop_
 _atom_site_type_symbol
 _atom_site_label
 _atom_site_symmetry_multiplicity
 _atom_site_fract_x
 _atom_site_fract_y
 _atom_site_fract_z
 _atom_site_occupancy
  Sr  Sr0  1  0.35716641  0.00294891  0.95122826  1
  Nb  Nb1  1  0.61258376  0.38972214  0.69943193  1
  H  H2  1  0.08856668  0.13613510  0.18635955  1
  H  H3  1  0.08222271  0.92589977  0.17955980  1
  H  H4  1  0.78942231  0.61266439  0.38119304  1
  H  H5  1  0.71518904  0.60158758  0.30050589  1
  H  H6  1  0.13234776  0.12660859  0.71979449  1
  H  H7  1  0.81575014  0.49576806  0.90946563  1
  H  H8  1  0.40808943  0.25398209  0.48623127  1
  H  H9  1  0.02597053  0.55512158  0.61108656  1
  H  H10  1  0.43531723  0.05447780  0.51570458  1
