# generated using pymatgen
data_SrNbH6
_symmetry_space_group_name_H-M   'P 1'
_cell_length_a   3.25373622
_cell_length_b   6.59965776
_cell_length_c   6.53157758
_cell_angle_alpha   54.17064557
_cell_angle_beta   60.10690524
_cell_angle_gamma   60.43647092
_symmetry_Int_Tables_number   1
_chemical_formula_structural   SrNbH6
_chemical_formula_sum   'Sr1 Nb1 H6'
_cell_volume   94.44173055
_cell_formula_units_Z   1
loop_
 _symmetry_equiv_pos_site_id
 _symmetry_equiv_pos_as_xyz
  1  'x, y, z'
loop_
 _atom_site_type_symbol
 _atom_site_label
 _atom_site_symmetry_multiplicity
 _atom_site_fract_x
 _atom_site_fract_y
 _atom_site_fract_z
 _atom_site_occupancy
  Sr  Sr0  1  0.99742650  0.14990531  0.79387125  1
  Nb  Nb1  1  0.81811644  0.51451517  0.10842765  1
  H  H2  1  0.62002204  0.34429268  0.47693987  1
  H  H3  1  0.17673212  0.41400259  0.85041270  1
  H  H4  1  0.77406977  0.84010951  0.82710077  1
  H  H5  1  0.44492820  0.60462658  0.89149750  1
  H  H6  1  0.06198966  0.66893569  0.20965296  1
  H  H7  1  0.45377527  0.27025547  0.21738330  1
