# generated using pymatgen
data_SrNbH8
_symmetry_space_group_name_H-M   'P 1'
_cell_length_a   3.40747832
_cell_length_b   4.51330597
_cell_length_c   6.19996848
_cell_angle_alpha   66.31932731
_cell_angle_beta   90.01962185
_cell_angle_gamma   90.01917299
_symmetry_Int_Tables_number   1
_chemical_formula_structural   SrNbH8
_chemical_formula_sum   'Sr1 Nb1 H8'
_cell_volume   87.32067323
_cell_formula_units_Z   1
loop_
 _symmetry_equiv_pos_site_id
 _symmetry_equiv_pos_as_xyz
  1  'x, y, z'
loop_
 _atom_site_type_symbol
 _atom_site_label
 _atom_site_symmetry_multiplicity
 _atom_site_fract_x
 _atom_site_fract_y
 _atom_site_fract_z
 _atom_site_occupancy
  Sr  Sr0  1  0.97822462  0.68145493  0.90932675  1
  Nb  Nb1  1  0.47843956  0.95568798  0.33140167  1
  H  H2  1  0.47835055  0.07668445  -0.00074434  1
  H  H3  1  0.97867634  0.12805644  0.37056451  1
  H  H4  1  0.86608409  0.28544325  0.70542459  1
  H  H5  1  0.47850484  0.40308411  0.21656282  1
  H  H6  1  0.47783564  0.64991135  0.63900404  1
  H  H7  1  0.09109229  0.28658509  0.70384380  1
  H  H8  1  0.47936511  0.13618322  0.54106019  1
  H  H9  1  0.97873596  0.73179418  0.30166996  1
