# generated using pymatgen
data_Sr2NbH9
_symmetry_space_group_name_H-M   'P 1'
_cell_length_a   3.59301776
_cell_length_b   3.97441074
_cell_length_c   9.15062097
_cell_angle_alpha   102.80621184
_cell_angle_beta   90.75434083
_cell_angle_gamma   90.09843244
_symmetry_Int_Tables_number   1
_chemical_formula_structural   Sr2NbH9
_chemical_formula_sum   'Sr2 Nb1 H9'
_cell_volume   127.40913462
_cell_formula_units_Z   1
loop_
 _symmetry_equiv_pos_site_id
 _symmetry_equiv_pos_as_xyz
  1  'x, y, z'
loop_
 _atom_site_type_symbol
 _atom_site_label
 _atom_site_symmetry_multiplicity
 _atom_site_fract_x
 _atom_site_fract_y
 _atom_site_fract_z
 _atom_site_occupancy
  Sr  Sr0  1  0.06214313  0.18951745  0.42044656  1
  Sr  Sr1  1  0.08065449  0.43518571  0.91937846  1
  Nb  Nb2  1  0.54780214  0.81117623  0.66797986  1
  H  H3  1  0.93636365  0.58693255  0.21684682  1
  H  H4  1  0.16449487  0.58860130  0.21939065  1
  H  H5  1  0.09010562  0.76562506  0.56357192  1
  H  H6  1  0.56092778  0.29414887  0.63498903  1
  H  H7  1  0.58013316  0.69422766  0.44607181  1
  H  H8  1  0.09664223  0.85613650  0.77249676  1
  H  H9  1  0.59429565  0.92856822  0.88927234  1
  H  H10  1  0.94894962  0.03692341  0.11847927  1
  H  H11  1  0.17786665  0.03931405  0.12238552  1
