# generated using pymatgen
data_Sr2NbH8
_symmetry_space_group_name_H-M   'P 1'
_cell_length_a   5.87831863
_cell_length_b   5.95894416
_cell_length_c   5.92062804
_cell_angle_alpha   59.98523089
_cell_angle_beta   89.55064195
_cell_angle_gamma   60.46558110
_symmetry_Int_Tables_number   1
_chemical_formula_structural   Sr2NbH8
_chemical_formula_sum   'Sr2 Nb1 H8'
_cell_volume   148.19210081
_cell_formula_units_Z   1
loop_
 _symmetry_equiv_pos_site_id
 _symmetry_equiv_pos_as_xyz
  1  'x, y, z'
loop_
 _atom_site_type_symbol
 _atom_site_label
 _atom_site_symmetry_multiplicity
 _atom_site_fract_x
 _atom_site_fract_y
 _atom_site_fract_z
 _atom_site_occupancy
  Sr  Sr0  1  0.10734632  0.62382364  0.77906008  1
  Sr  Sr1  1  0.62522966  0.63344195  0.28213859  1
  Nb  Nb2  1  0.36636404  0.13741312  0.51634399  1
  H  H3  1  0.64106216  0.74321971  0.82833035  1
  H  H4  1  0.55906996  0.21249246  0.70404359  1
  H  H5  1  0.38307903  0.43680340  0.21212376  1
  H  H6  1  0.36848220  0.81390999  0.54748363  1
  H  H7  1  0.07284907  0.28869166  0.23942248  1
  H  H8  1  0.66621251  0.96327966  0.40137394  1
  H  H9  1  0.09487077  0.54597037  0.40679716  1
  H  H10  1  0.17068229  0.09069004  0.78291843  1
