# generated using pymatgen
data_Sr(NbH4)2
_symmetry_space_group_name_H-M   'P 1'
_cell_length_a   6.29270322
_cell_length_b   6.08526925
_cell_length_c   4.99723483
_cell_angle_alpha   109.19132755
_cell_angle_beta   94.90943259
_cell_angle_gamma   131.80138157
_symmetry_Int_Tables_number   1
_chemical_formula_structural   Sr(NbH4)2
_chemical_formula_sum   'Sr1 Nb2 H8'
_cell_volume   121.45189884
_cell_formula_units_Z   1
loop_
 _symmetry_equiv_pos_site_id
 _symmetry_equiv_pos_as_xyz
  1  'x, y, z'
loop_
 _atom_site_type_symbol
 _atom_site_label
 _atom_site_symmetry_multiplicity
 _atom_site_fract_x
 _atom_site_fract_y
 _atom_site_fract_z
 _atom_site_occupancy
  Sr  Sr0  1  0.91041507  0.92888642  0.96453095  1
  Nb  Nb1  1  0.12216386  0.52574717  0.73329195  1
  Nb  Nb2  1  0.42476801  0.87371479  0.38015629  1
  H  H3  1  0.36449235  0.52666423  0.00188917  1
  H  H4  1  0.52731185  0.98409600  0.05906133  1
  H  H5  1  0.28010939  0.04737926  0.36507188  1
  H  H6  1  0.34684420  0.54467388  0.48299411  1
  H  H7  1  0.20635196  0.85037990  0.64494015  1
  H  H8  1  0.73074946  0.36852610  0.62639207  1
  H  H9  1  0.83151105  0.02880765  0.48872096  1
  H  H10  1  0.99352581  0.46305160  0.06425615  1
