# generated using pymatgen
data_Sr2NbH7
_symmetry_space_group_name_H-M   'P 1'
_cell_length_a   3.95210881
_cell_length_b   6.64356908
_cell_length_c   6.58943347
_cell_angle_alpha   55.45247839
_cell_angle_beta   67.71890877
_cell_angle_gamma   54.40490060
_symmetry_Int_Tables_number   1
_chemical_formula_structural   Sr2NbH7
_chemical_formula_sum   'Sr2 Nb1 H7'
_cell_volume   115.56500960
_cell_formula_units_Z   1
loop_
 _symmetry_equiv_pos_site_id
 _symmetry_equiv_pos_as_xyz
  1  'x, y, z'
loop_
 _atom_site_type_symbol
 _atom_site_label
 _atom_site_symmetry_multiplicity
 _atom_site_fract_x
 _atom_site_fract_y
 _atom_site_fract_z
 _atom_site_occupancy
  Sr  Sr0  1  0.55709446  0.58957516  0.34419180  1
  Sr  Sr1  1  0.52330940  0.89926579  0.71496717  1
  Nb  Nb2  1  0.63430340  0.20874151  0.00897256  1
  H  H3  1  0.28019846  0.59224379  0.76918177  1
  H  H4  1  0.75569504  0.89898214  0.32934369  1
  H  H5  1  0.34028555  0.34273475  0.26221801  1
  H  H6  1  0.71397993  0.17778585  0.72156692  1
  H  H7  1  0.93913672  0.38052299  0.74081954  1
  H  H8  1  0.98055714  0.85600045  0.03339297  1
  H  H9  1  0.19017590  0.08960858  0.08215156  1
