# generated using pymatgen
data_Sr(NbH4)2
_symmetry_space_group_name_H-M   'P 1'
_cell_length_a   3.26137890
_cell_length_b   5.43022049
_cell_length_c   7.29107647
_cell_angle_alpha   62.61258878
_cell_angle_beta   62.86817534
_cell_angle_gamma   70.16931907
_symmetry_Int_Tables_number   1
_chemical_formula_structural   Sr(NbH4)2
_chemical_formula_sum   'Sr1 Nb2 H8'
_cell_volume   100.65717434
_cell_formula_units_Z   1
loop_
 _symmetry_equiv_pos_site_id
 _symmetry_equiv_pos_as_xyz
  1  'x, y, z'
loop_
 _atom_site_type_symbol
 _atom_site_label
 _atom_site_symmetry_multiplicity
 _atom_site_fract_x
 _atom_site_fract_y
 _atom_site_fract_z
 _atom_site_occupancy
  Sr  Sr0  1  0.05051869  0.42718940  0.21060908  1
  Nb  Nb1  1  0.58369095  0.07274249  0.82089601  1
  Nb  Nb2  1  0.00096786  0.62893027  0.61932307  1
  H  H3  1  0.29315179  0.67491485  0.31919965  1
  H  H4  1  0.26616012  0.87449403  0.76647785  1
  H  H5  1  0.90363324  0.02416783  0.02525062  1
  H  H6  1  0.69073971  0.66558295  0.93936670  1
  H  H7  1  0.17612029  0.25310506  0.62764438  1
  H  H8  1  0.88416220  0.02978892  0.53631720  1
  H  H9  1  0.41004363  0.45250621  0.80930820  1
  H  H10  1  0.58712652  0.77968800  0.45503924  1
