# generated using pymatgen
data_Sr(NbH4)2
_symmetry_space_group_name_H-M   'P 1'
_cell_length_a   4.67157001
_cell_length_b   6.74010458
_cell_length_c   4.67329873
_cell_angle_alpha   110.31357323
_cell_angle_beta   59.99897231
_cell_angle_gamma   110.40060657
_symmetry_Int_Tables_number   1
_chemical_formula_structural   Sr(NbH4)2
_chemical_formula_sum   'Sr1 Nb2 H8'
_cell_volume   116.69953456
_cell_formula_units_Z   1
loop_
 _symmetry_equiv_pos_site_id
 _symmetry_equiv_pos_as_xyz
  1  'x, y, z'
loop_
 _atom_site_type_symbol
 _atom_site_label
 _atom_site_symmetry_multiplicity
 _atom_site_fract_x
 _atom_site_fract_y
 _atom_site_fract_z
 _atom_site_occupancy
  Sr  Sr0  1  0.13378234  0.37946314  0.26497071  1
  Nb  Nb1  1  0.32226795  0.94636327  0.45434571  1
  Nb  Nb2  1  0.94534194  0.81237756  0.07535410  1
  H  H3  1  0.76709707  0.02085754  0.47326769  1
  H  H4  1  0.34261825  0.02096212  0.06566152  1
  H  H5  1  0.50071595  0.73794172  0.05657110  1
  H  H6  1  0.42774391  0.25835015  0.55829504  1
  H  H7  1  0.83983847  0.50052786  0.97151577  1
  H  H8  1  0.92503988  0.73786872  0.46375349  1
  H  H9  1  0.93498623  0.02075017  0.89708243  1
  H  H10  1  0.33230500  0.73808075  0.63291044  1
