# generated using pymatgen
data_SrNbH7
_symmetry_space_group_name_H-M   'P 1'
_cell_length_a   3.32771887
_cell_length_b   3.38974792
_cell_length_c   7.19620040
_cell_angle_alpha   103.76831315
_cell_angle_beta   90.50742265
_cell_angle_gamma   90.02737768
_symmetry_Int_Tables_number   1
_chemical_formula_structural   SrNbH7
_chemical_formula_sum   'Sr1 Nb1 H7'
_cell_volume   78.83823978
_cell_formula_units_Z   1
loop_
 _symmetry_equiv_pos_site_id
 _symmetry_equiv_pos_as_xyz
  1  'x, y, z'
loop_
 _atom_site_type_symbol
 _atom_site_label
 _atom_site_symmetry_multiplicity
 _atom_site_fract_x
 _atom_site_fract_y
 _atom_site_fract_z
 _atom_site_occupancy
  Sr  Sr0  1  0.34091395  0.26651655  0.73050260  1
  Nb  Nb1  1  0.82547427  0.54023818  0.28010542  1
  H  H2  1  0.84819198  0.80500189  0.80620597  1
  H  H3  1  0.83050180  0.11607858  0.42993947  1
  H  H4  1  0.83285325  0.67486242  0.54670392  1
  H  H5  1  0.32285463  0.46533955  0.13339743  1
  H  H6  1  0.82945710  0.40338638  0.01001391  1
  H  H7  1  0.32875274  0.61584209  0.42867456  1
  H  H8  1  0.81541127  0.97150635  0.14451772  1
