# generated using pymatgen
data_Sr2NbH7
_symmetry_space_group_name_H-M   'P 1'
_cell_length_a   3.65889372
_cell_length_b   5.97579764
_cell_length_c   8.69985124
_cell_angle_alpha   126.81267315
_cell_angle_beta   114.70406744
_cell_angle_gamma   90.11639251
_symmetry_Int_Tables_number   1
_chemical_formula_structural   Sr2NbH7
_chemical_formula_sum   'Sr2 Nb1 H7'
_cell_volume   129.75081815
_cell_formula_units_Z   1
loop_
 _symmetry_equiv_pos_site_id
 _symmetry_equiv_pos_as_xyz
  1  'x, y, z'
loop_
 _atom_site_type_symbol
 _atom_site_label
 _atom_site_symmetry_multiplicity
 _atom_site_fract_x
 _atom_site_fract_y
 _atom_site_fract_z
 _atom_site_occupancy
  Sr  Sr0  1  0.33158697  0.13322344  0.87106597  1
  Sr  Sr1  1  0.88462068  0.23940195  0.42424017  1
  Nb  Nb2  1  0.87799067  0.68598784  0.94042978  1
  H  H3  1  0.99310821  0.46703428  0.02877884  1
  H  H4  1  0.62669881  0.26194843  0.67567340  1
  H  H5  1  0.30803813  0.68500014  0.82487813  1
  H  H6  1  0.05093064  0.11087567  0.09972401  1
  H  H7  1  0.21262332  0.90608608  0.24821727  1
  H  H8  1  0.54540137  0.68725609  0.06073523  1
  H  H9  1  0.65366821  0.68608906  0.67734220  1
