# generated using pymatgen
data_Sr6NbH16
_symmetry_space_group_name_H-M   'P 1'
_cell_length_a   8.12404900
_cell_length_b   8.12404941
_cell_length_c   8.12404989
_cell_angle_alpha   60.00000037
_cell_angle_beta   59.99999957
_cell_angle_gamma   59.99999760
_symmetry_Int_Tables_number   1
_chemical_formula_structural   Sr6NbH16
_chemical_formula_sum   'Sr6 Nb1 H16'
_cell_volume   379.14267195
_cell_formula_units_Z   1
loop_
 _symmetry_equiv_pos_site_id
 _symmetry_equiv_pos_as_xyz
  1  'x, y, z'
loop_
 _atom_site_type_symbol
 _atom_site_label
 _atom_site_symmetry_multiplicity
 _atom_site_fract_x
 _atom_site_fract_y
 _atom_site_fract_z
 _atom_site_occupancy
  H  H0  1  0.90028000  0.90028000  0.90028000  1
  Nb  Nb1  1  0.00000000  0.00000000  0.00000000  1
  H  H2  1  0.09972000  0.09972000  0.09972000  1
  H  H3  1  0.09972000  0.70084000  0.09972000  1
  H  H4  1  0.29916000  0.90028000  0.90028000  1
  H  H5  1  0.70084000  0.09972000  0.09972000  1
  H  H6  1  0.09972000  0.09972000  0.70084000  1
  H  H7  1  0.90028000  0.29916000  0.90028000  1
  H  H8  1  0.90028000  0.90028000  0.29916000  1
  H  H9  1  0.93994900  0.35335000  0.35335000  1
  Sr  Sr10  1  0.00000000  0.50000000  0.50000000  1
  H  H11  1  0.06005100  0.64665000  0.64665000  1
  H  H12  1  0.35335000  0.35335000  0.93994900  1
  Sr  Sr13  1  0.50000000  0.50000000  0.00000000  1
  H  H14  1  0.64665000  0.64665000  0.06005100  1
  H  H15  1  0.35335000  0.93994900  0.35335000  1
  Sr  Sr16  1  0.50000000  0.00000000  0.50000000  1
  H  H17  1  0.64665000  0.06005100  0.64665000  1
  H  H18  1  0.64665000  0.64665000  0.64665000  1
  H  H19  1  0.35335000  0.35335000  0.35335000  1
  Sr  Sr20  1  0.50000000  0.00000000  0.00000000  1
  Sr  Sr21  1  0.00000000  0.00000000  0.50000000  1
  Sr  Sr22  1  0.00000000  0.50000000  0.00000000  1
