# generated using pymatgen
data_SrNb2H7
_symmetry_space_group_name_H-M   'P 1'
_cell_length_a   4.98935800
_cell_length_b   6.41204671
_cell_length_c   6.58422269
_cell_angle_alpha   109.69475828
_cell_angle_beta   100.74521002
_cell_angle_gamma   99.61609554
_symmetry_Int_Tables_number   1
_chemical_formula_structural   SrNb2H7
_chemical_formula_sum   'Sr1 Nb2 H7'
_cell_volume   188.72999228
_cell_formula_units_Z   1
loop_
 _symmetry_equiv_pos_site_id
 _symmetry_equiv_pos_as_xyz
  1  'x, y, z'
loop_
 _atom_site_type_symbol
 _atom_site_label
 _atom_site_symmetry_multiplicity
 _atom_site_fract_x
 _atom_site_fract_y
 _atom_site_fract_z
 _atom_site_occupancy
  H  H0  1  0.92298800  0.50297000  0.59992900  1
  H  H1  1  0.90419500  0.29399800  0.66027500  1
  H  H2  1  0.23303300  0.04873800  0.74890400  1
  H  H3  1  0.22519700  0.13380100  0.73340500  1
  H  H4  1  0.49912900  0.99298300  0.97799600  1
  Nb  Nb5  1  0.80548500  0.86321000  0.07202800  1
  H  H6  1  0.48279800  0.66560400  0.73739900  1
  Sr  Sr7  1  0.21427500  0.77198100  0.16525900  1
  Nb  Nb8  1  0.73705800  0.89253100  0.60769800  1
  H  H9  1  0.06164900  0.29715700  0.07841500  1
