# generated using pymatgen
data_SrNb2H7
_symmetry_space_group_name_H-M   'P 1'
_cell_length_a   5.64755000
_cell_length_b   6.27073668
_cell_length_c   5.92721006
_cell_angle_alpha   108.14430876
_cell_angle_beta   108.86603475
_cell_angle_gamma   85.05061519
_symmetry_Int_Tables_number   1
_chemical_formula_structural   SrNb2H7
_chemical_formula_sum   'Sr1 Nb2 H7'
_cell_volume   188.72997558
_cell_formula_units_Z   1
loop_
 _symmetry_equiv_pos_site_id
 _symmetry_equiv_pos_as_xyz
  1  'x, y, z'
loop_
 _atom_site_type_symbol
 _atom_site_label
 _atom_site_symmetry_multiplicity
 _atom_site_fract_x
 _atom_site_fract_y
 _atom_site_fract_z
 _atom_site_occupancy
  H  H0  1  0.16233500  0.33033500  0.79143600  1
  Sr  Sr1  1  0.95159600  0.56390400  0.83019700  1
  H  H2  1  0.95119100  0.52211800  0.14360800  1
  H  H3  1  0.41548400  0.30674700  0.43565300  1
  Nb  Nb4  1  0.58019200  0.26227500  0.60790500  1
  H  H5  1  0.31373500  0.59969100  0.49666500  1
  H  H6  1  0.51588300  0.16812400  0.02942600  1
  Nb  Nb7  1  0.72255300  0.95931300  0.95133800  1
  H  H8  1  0.73555800  0.06974800  0.30219800  1
  H  H9  1  0.58130500  0.71649300  0.22846700  1
