# generated using pymatgen
data_SrNbH6
_symmetry_space_group_name_H-M   'P 1'
_cell_length_a   3.17117100
_cell_length_b   5.92993176
_cell_length_c   8.56690646
_cell_angle_alpha   82.71805429
_cell_angle_beta   84.44379717
_cell_angle_gamma   79.20534512
_symmetry_Int_Tables_number   1
_chemical_formula_structural   SrNbH6
_chemical_formula_sum   'Sr1 Nb1 H6'
_cell_volume   156.52998434
_cell_formula_units_Z   1
loop_
 _symmetry_equiv_pos_site_id
 _symmetry_equiv_pos_as_xyz
  1  'x, y, z'
loop_
 _atom_site_type_symbol
 _atom_site_label
 _atom_site_symmetry_multiplicity
 _atom_site_fract_x
 _atom_site_fract_y
 _atom_site_fract_z
 _atom_site_occupancy
  H  H0  1  0.89842400  0.95153700  0.57219900  1
  H  H1  1  0.11575600  0.64450600  0.62456100  1
  H  H2  1  0.29058000  0.76598500  0.24540200  1
  Sr  Sr3  1  0.02400900  0.63240300  0.34326400  1
  H  H4  1  0.54880000  0.09876900  0.99340500  1
  H  H5  1  0.11171200  0.03722800  0.08774000  1
  Nb  Nb6  1  0.49756700  0.04991600  0.19852500  1
  H  H7  1  0.83559900  0.50969400  0.16210400  1
