# generated using pymatgen
data_SrNb2H7
_symmetry_space_group_name_H-M   'P 1'
_cell_length_a   4.82685500
_cell_length_b   5.56986434
_cell_length_c   7.60793992
_cell_angle_alpha   104.50715692
_cell_angle_beta   102.94784063
_cell_angle_gamma   98.09725956
_symmetry_Int_Tables_number   1
_chemical_formula_structural   SrNb2H7
_chemical_formula_sum   'Sr1 Nb2 H7'
_cell_volume   188.73002516
_cell_formula_units_Z   1
loop_
 _symmetry_equiv_pos_site_id
 _symmetry_equiv_pos_as_xyz
  1  'x, y, z'
loop_
 _atom_site_type_symbol
 _atom_site_label
 _atom_site_symmetry_multiplicity
 _atom_site_fract_x
 _atom_site_fract_y
 _atom_site_fract_z
 _atom_site_occupancy
  H  H0  1  0.37705500  0.27104400  0.34374800  1
  H  H1  1  0.53023100  0.16936400  0.37847600  1
  H  H2  1  0.53721400  0.61074500  0.53674100  1
  Sr  Sr3  1  0.67093300  0.74724200  0.40673500  1
  H  H4  1  0.98535700  0.88586400  0.57666300  1
  H  H5  1  0.85439600  0.07585800  0.77464600  1
  Nb  Nb6  1  0.78186200  0.91793100  0.82786900  1
  H  H7  1  0.25317800  0.20213000  0.95482400  1
  Nb  Nb8  1  0.16067200  0.33132900  0.79677800  1
  H  H9  1  0.96254900  0.19663500  0.49051200  1
