# generated using pymatgen
data_SrNbH7
_symmetry_space_group_name_H-M   'P 1'
_cell_length_a   3.76803000
_cell_length_b   6.34658734
_cell_length_c   7.50736315
_cell_angle_alpha   83.56248250
_cell_angle_beta   89.98525508
_cell_angle_gamma   72.90820412
_symmetry_Int_Tables_number   1
_chemical_formula_structural   SrNbH7
_chemical_formula_sum   'Sr1 Nb1 H7'
_cell_volume   170.41999201
_cell_formula_units_Z   1
loop_
 _symmetry_equiv_pos_site_id
 _symmetry_equiv_pos_as_xyz
  1  'x, y, z'
loop_
 _atom_site_type_symbol
 _atom_site_label
 _atom_site_symmetry_multiplicity
 _atom_site_fract_x
 _atom_site_fract_y
 _atom_site_fract_z
 _atom_site_occupancy
  H  H0  1  0.77501700  0.02144100  0.91092000  1
  H  H1  1  0.54947000  0.15326000  0.78486200  1
  Nb  Nb2  1  0.79763700  0.26187500  0.66665300  1
  Sr  Sr3  1  0.39303900  0.08047300  0.00661800  1
  H  H4  1  0.64206500  0.23700000  0.09059800  1
  H  H5  1  0.36191100  0.15173300  0.41572000  1
  H  H6  1  0.08097200  0.24438400  0.21908700  1
  H  H7  1  0.36447500  0.89859600  0.73820100  1
  H  H8  1  0.79353900  0.60789400  0.84111500  1
