# generated using pymatgen
data_SrNbH6
_symmetry_space_group_name_H-M   'P 1'
_cell_length_a   3.75052000
_cell_length_b   5.85629496
_cell_length_c   7.42449056
_cell_angle_alpha   81.26878150
_cell_angle_beta   83.00429019
_cell_angle_gamma   77.21978771
_symmetry_Int_Tables_number   1
_chemical_formula_structural   SrNbH6
_chemical_formula_sum   'Sr1 Nb1 H6'
_cell_volume   156.53002366
_cell_formula_units_Z   1
loop_
 _symmetry_equiv_pos_site_id
 _symmetry_equiv_pos_as_xyz
  1  'x, y, z'
loop_
 _atom_site_type_symbol
 _atom_site_label
 _atom_site_symmetry_multiplicity
 _atom_site_fract_x
 _atom_site_fract_y
 _atom_site_fract_z
 _atom_site_occupancy
  H  H0  1  0.28313400  0.53618000  0.69390100  1
  Nb  Nb1  1  0.61368300  0.66618700  0.69098200  1
  H  H2  1  0.79669300  0.79353300  0.08330500  1
  H  H3  1  0.91415100  0.93532300  0.94555800  1
  H  H4  1  0.71249000  0.22975200  0.13523500  1
  H  H5  1  0.63824000  0.00385200  0.20290300  1
  H  H6  1  0.60757300  0.48094800  0.18635800  1
  Sr  Sr7  1  0.15381900  0.16513500  0.89359600  1
