# generated using pymatgen
data_SrNbH6
_symmetry_space_group_name_H-M   'P 1'
_cell_length_a   3.38789300
_cell_length_b   3.73324266
_cell_length_c   12.48724834
_cell_angle_alpha   93.38282873
_cell_angle_beta   96.68065934
_cell_angle_gamma   91.19035762
_symmetry_Int_Tables_number   1
_chemical_formula_structural   SrNbH6
_chemical_formula_sum   'Sr1 Nb1 H6'
_cell_volume   156.52997833
_cell_formula_units_Z   1
loop_
 _symmetry_equiv_pos_site_id
 _symmetry_equiv_pos_as_xyz
  1  'x, y, z'
loop_
 _atom_site_type_symbol
 _atom_site_label
 _atom_site_symmetry_multiplicity
 _atom_site_fract_x
 _atom_site_fract_y
 _atom_site_fract_z
 _atom_site_occupancy
  H  H0  1  0.78663300  0.16428700  0.11363700  1
  H  H1  1  0.71496700  0.28946700  0.05802000  1
  H  H2  1  0.10100600  0.08566100  0.99944400  1
  H  H3  1  0.35139100  0.21077400  0.07049900  1
  Nb  Nb4  1  0.20151500  0.48257600  0.97877400  1
  H  H5  1  0.72590800  0.86592300  0.92053000  1
  Sr  Sr6  1  0.13654200  0.38548300  0.78112800  1
  H  H7  1  0.60645100  0.49810500  0.33930300  1
