# generated using pymatgen
data_SrNbH8
_symmetry_space_group_name_H-M   'P 1'
_cell_length_a   3.94557200
_cell_length_b   5.00272186
_cell_length_c   9.78338005
_cell_angle_alpha   76.59461780
_cell_angle_beta   78.86292130
_cell_angle_gamma   87.63010429
_symmetry_Int_Tables_number   1
_chemical_formula_structural   SrNbH8
_chemical_formula_sum   'Sr1 Nb1 H8'
_cell_volume   184.30997437
_cell_formula_units_Z   1
loop_
 _symmetry_equiv_pos_site_id
 _symmetry_equiv_pos_as_xyz
  1  'x, y, z'
loop_
 _atom_site_type_symbol
 _atom_site_label
 _atom_site_symmetry_multiplicity
 _atom_site_fract_x
 _atom_site_fract_y
 _atom_site_fract_z
 _atom_site_occupancy
  H  H0  1  0.02236700  0.85351900  0.20004700  1
  H  H1  1  0.08868900  0.79830000  0.25000200  1
  H  H2  1  0.84782600  0.90423900  0.19799100  1
  H  H3  1  0.21384900  0.28275800  0.86534200  1
  Nb  Nb4  1  0.93856700  0.31276700  0.96991300  1
  H  H5  1  0.03272600  0.09168700  0.78744100  1
  H  H6  1  0.06819500  0.73775400  0.85503200  1
  H  H7  1  0.14654400  0.13803900  0.58074400  1
  H  H8  1  0.37090200  0.74095100  0.54971800  1
  Sr  Sr9  1  0.46362200  0.53218600  0.39362900  1
