# generated using pymatgen
data_SrNbH6
_symmetry_space_group_name_H-M   'P 1'
_cell_length_a   2.48225800
_cell_length_b   6.41976558
_cell_length_c   9.87448204
_cell_angle_alpha   90.80918783
_cell_angle_beta   91.83167979
_cell_angle_gamma   95.48921142
_symmetry_Int_Tables_number   1
_chemical_formula_structural   SrNbH6
_chemical_formula_sum   'Sr1 Nb1 H6'
_cell_volume   156.52998138
_cell_formula_units_Z   1
loop_
 _symmetry_equiv_pos_site_id
 _symmetry_equiv_pos_as_xyz
  1  'x, y, z'
loop_
 _atom_site_type_symbol
 _atom_site_label
 _atom_site_symmetry_multiplicity
 _atom_site_fract_x
 _atom_site_fract_y
 _atom_site_fract_z
 _atom_site_occupancy
  H  H0  1  0.96893100  0.20558400  0.41578200  1
  Nb  Nb1  1  0.14964300  0.28518400  0.31097900  1
  Sr  Sr2  1  0.37964600  0.29210100  0.54127900  1
  H  H3  1  0.54260200  0.93496900  0.75197500  1
  H  H4  1  0.60620300  0.79471500  0.74595200  1
  H  H5  1  0.63473700  0.48410600  0.80537600  1
  H  H6  1  0.56970600  0.26093600  0.83720800  1
  H  H7  1  0.63374300  0.86138300  0.03500500  1
