# generated using pymatgen
data_SrNbH6
_symmetry_space_group_name_H-M   'P 1'
_cell_length_a   4.80476400
_cell_length_b   5.76257830
_cell_length_c   6.41016419
_cell_angle_alpha   68.94145425
_cell_angle_beta   86.83417020
_cell_angle_gamma   71.30504328
_symmetry_Int_Tables_number   1
_chemical_formula_structural   SrNbH6
_chemical_formula_sum   'Sr1 Nb1 H6'
_cell_volume   156.52999633
_cell_formula_units_Z   1
loop_
 _symmetry_equiv_pos_site_id
 _symmetry_equiv_pos_as_xyz
  1  'x, y, z'
loop_
 _atom_site_type_symbol
 _atom_site_label
 _atom_site_symmetry_multiplicity
 _atom_site_fract_x
 _atom_site_fract_y
 _atom_site_fract_z
 _atom_site_occupancy
  H  H0  1  0.60773700  0.05892600  0.64859200  1
  H  H1  1  0.58136200  0.14297300  0.44634700  1
  H  H2  1  0.35378500  0.36074100  0.29830100  1
  H  H3  1  0.71244600  0.99579200  0.88535500  1
  H  H4  1  0.74414200  0.72267300  0.86731000  1
  Sr  Sr5  1  0.45865600  0.84576200  0.99164300  1
  Nb  Nb6  1  0.98826700  0.45980000  0.07588200  1
  H  H7  1  0.89405800  0.23047100  0.99565600  1
