# generated using pymatgen
data_Sr2NbH8
_symmetry_space_group_name_H-M   'P 1'
_cell_length_a   5.53401500
_cell_length_b   5.73059473
_cell_length_c   8.56919572
_cell_angle_alpha   77.06184508
_cell_angle_beta   75.63207869
_cell_angle_gamma   66.59904793
_symmetry_Int_Tables_number   1
_chemical_formula_structural   Sr2NbH8
_chemical_formula_sum   'Sr2 Nb1 H8'
_cell_volume   239.18998629
_cell_formula_units_Z   1
loop_
 _symmetry_equiv_pos_site_id
 _symmetry_equiv_pos_as_xyz
  1  'x, y, z'
loop_
 _atom_site_type_symbol
 _atom_site_label
 _atom_site_symmetry_multiplicity
 _atom_site_fract_x
 _atom_site_fract_y
 _atom_site_fract_z
 _atom_site_occupancy
  H  H0  1  0.84869400  0.07745900  0.48302300  1
  H  H1  1  0.23925500  0.98534900  0.27000400  1
  H  H2  1  0.53968500  0.37626900  0.27479700  1
  Sr  Sr3  1  0.20018900  0.46354100  0.39254000  1
  H  H4  1  0.48521600  0.42370100  0.70995300  1
  H  H5  1  0.70778800  0.52232200  0.63853500  1
  H  H6  1  0.72777100  0.34894400  0.83845500  1
  Sr  Sr7  1  0.21959600  0.70245600  0.58789400  1
  H  H8  1  0.98057300  0.89224500  0.02273100  1
  H  H9  1  0.22671400  0.97821400  0.82189600  1
  Nb  Nb10  1  0.43701300  0.12860400  0.90501700  1
