# generated using pymatgen
data_SrNb2H7
_symmetry_space_group_name_H-M   'P 1'
_cell_length_a   2.63552500
_cell_length_b   5.20831159
_cell_length_c   13.84862187
_cell_angle_alpha   85.11314636
_cell_angle_beta   85.16957792
_cell_angle_gamma   89.79421793
_symmetry_Int_Tables_number   1
_chemical_formula_structural   SrNb2H7
_chemical_formula_sum   'Sr1 Nb2 H7'
_cell_volume   188.73002662
_cell_formula_units_Z   1
loop_
 _symmetry_equiv_pos_site_id
 _symmetry_equiv_pos_as_xyz
  1  'x, y, z'
loop_
 _atom_site_type_symbol
 _atom_site_label
 _atom_site_symmetry_multiplicity
 _atom_site_fract_x
 _atom_site_fract_y
 _atom_site_fract_z
 _atom_site_occupancy
  H  H0  1  0.05781000  0.27296400  0.09723200  1
  H  H1  1  0.67851200  0.19983600  0.12899300  1
  H  H2  1  0.64248300  0.92099000  0.06909700  1
  Nb  Nb3  1  0.53809800  0.55307000  0.09309000  1
  H  H4  1  0.82953100  0.79775400  0.46422900  1
  Sr  Sr5  1  0.19101800  0.01067800  0.46338400  1
  H  H6  1  0.38071900  0.35889000  0.45104900  1
  H  H7  1  0.58698600  0.26496100  0.57680500  1
  H  H8  1  0.65535300  0.35396300  0.81077300  1
  Nb  Nb9  1  0.12481000  0.11074100  0.74599500  1
