# generated using pymatgen
data_SrNb2H9
_symmetry_space_group_name_H-M   'P 1'
_cell_length_a   5.22370400
_cell_length_b   6.63971276
_cell_length_c   6.99991445
_cell_angle_alpha   66.42996779
_cell_angle_beta   76.81112733
_cell_angle_gamma   82.85392924
_symmetry_Int_Tables_number   1
_chemical_formula_structural   SrNb2H9
_chemical_formula_sum   'Sr1 Nb2 H9'
_cell_volume   216.51001337
_cell_formula_units_Z   1
loop_
 _symmetry_equiv_pos_site_id
 _symmetry_equiv_pos_as_xyz
  1  'x, y, z'
loop_
 _atom_site_type_symbol
 _atom_site_label
 _atom_site_symmetry_multiplicity
 _atom_site_fract_x
 _atom_site_fract_y
 _atom_site_fract_z
 _atom_site_occupancy
  H  H0  1  0.17800600  0.86587300  0.69028500  1
  Nb  Nb1  1  0.32670400  0.01627700  0.61629500  1
  H  H2  1  0.71465000  0.62521800  0.62844800  1
  H  H3  1  0.59807700  0.78274600  0.65978900  1
  H  H4  1  0.66384600  0.57433400  0.48517000  1
  H  H5  1  0.75475000  0.68307400  0.84415300  1
  Nb  Nb6  1  0.73741600  0.71450600  0.06979100  1
  H  H7  1  0.72612100  0.34015200  0.76091600  1
  H  H8  1  0.03179300  0.39954000  0.61216400  1
  Sr  Sr9  1  0.80192800  0.11327700  0.65376400  1
  H  H10  1  0.95508600  0.09000600  0.38706400  1
  H  H11  1  0.26152900  0.48474400  0.00498400  1
