# generated using pymatgen
data_SrNbH6
_symmetry_space_group_name_H-M   'P 1'
_cell_length_a   3.80736400
_cell_length_b   5.49793244
_cell_length_c   7.49609141
_cell_angle_alpha   89.78990702
_cell_angle_beta   88.16411841
_cell_angle_gamma   86.44282174
_symmetry_Int_Tables_number   1
_chemical_formula_structural   SrNbH6
_chemical_formula_sum   'Sr1 Nb1 H6'
_cell_volume   156.52998529
_cell_formula_units_Z   1
loop_
 _symmetry_equiv_pos_site_id
 _symmetry_equiv_pos_as_xyz
  1  'x, y, z'
loop_
 _atom_site_type_symbol
 _atom_site_label
 _atom_site_symmetry_multiplicity
 _atom_site_fract_x
 _atom_site_fract_y
 _atom_site_fract_z
 _atom_site_occupancy
  H  H0  1  0.04868700  0.00929700  0.89617600  1
  H  H1  1  0.00065800  0.23548200  0.82053700  1
  H  H2  1  0.90828800  0.44036600  0.95229500  1
  Nb  Nb3  1  0.81120400  0.42895000  0.14582000  1
  H  H4  1  0.11768100  0.31473200  0.63197400  1
  H  H5  1  0.49536400  0.38954400  0.00445900  1
  H  H6  1  0.86076000  0.92648700  0.10616500  1
  Sr  Sr7  1  0.44395900  0.07218300  0.49471800  1
