# generated using pymatgen
data_SrNbH6
_symmetry_space_group_name_H-M   'P 1'
_cell_length_a   5.45800400
_cell_length_b   5.56976030
_cell_length_c   6.01276430
_cell_angle_alpha   67.15258157
_cell_angle_beta   68.60526156
_cell_angle_gamma   84.95714055
_symmetry_Int_Tables_number   1
_chemical_formula_structural   SrNbH6
_chemical_formula_sum   'Sr1 Nb1 H6'
_cell_volume   156.53000863
_cell_formula_units_Z   1
loop_
 _symmetry_equiv_pos_site_id
 _symmetry_equiv_pos_as_xyz
  1  'x, y, z'
loop_
 _atom_site_type_symbol
 _atom_site_label
 _atom_site_symmetry_multiplicity
 _atom_site_fract_x
 _atom_site_fract_y
 _atom_site_fract_z
 _atom_site_occupancy
  H  H0  1  0.66249300  0.73493300  0.14113300  1
  Nb  Nb1  1  0.65533700  0.91368600  0.83271900  1
  H  H2  1  0.70137900  0.40416500  0.95079300  1
  H  H3  1  0.64589100  0.46336400  0.87977000  1
  H  H4  1  0.70228400  0.60372900  0.55778000  1
  H  H5  1  0.58866200  0.39827900  0.71824700  1
  Sr  Sr6  1  0.43990900  0.40708700  0.55353900  1
  H  H7  1  0.34080600  0.50376200  0.18402300  1
