# generated using pymatgen
data_SrNbH10
_symmetry_space_group_name_H-M   'P 1'
_cell_length_a   3.90720600
_cell_length_b   5.20715876
_cell_length_c   11.17240373
_cell_angle_alpha   78.63497579
_cell_angle_beta   84.89466578
_cell_angle_gamma   72.20709539
_symmetry_Int_Tables_number   1
_chemical_formula_structural   SrNbH10
_chemical_formula_sum   'Sr1 Nb1 H10'
_cell_volume   212.09001900
_cell_formula_units_Z   1
loop_
 _symmetry_equiv_pos_site_id
 _symmetry_equiv_pos_as_xyz
  1  'x, y, z'
loop_
 _atom_site_type_symbol
 _atom_site_label
 _atom_site_symmetry_multiplicity
 _atom_site_fract_x
 _atom_site_fract_y
 _atom_site_fract_z
 _atom_site_occupancy
  H  H0  1  0.14903200  0.14673400  0.57649700  1
  H  H1  1  0.94271100  0.08615600  0.61177500  1
  Nb  Nb2  1  0.81252600  0.13837900  0.46928700  1
  H  H3  1  0.69314300  0.92537300  0.78048200  1
  H  H4  1  0.91895000  0.90179100  0.79580400  1
  H  H5  1  0.26774000  0.01966600  0.80834300  1
  H  H6  1  0.71720600  0.60755000  0.90444400  1
  H  H7  1  0.29388000  0.81822100  0.42438400  1
  H  H8  1  0.31347200  0.28282700  0.94822200  1
  H  H9  1  0.09470200  0.60435000  0.65466700  1
  Sr  Sr10  1  0.89345500  0.81860000  0.06692900  1
  H  H11  1  0.69387600  0.37540900  0.13923500  1
