# generated using pymatgen
data_Sr2NbH8
_symmetry_space_group_name_H-M   'P 1'
_cell_length_a   6.08552700
_cell_length_b   6.65995953
_cell_length_c   7.14688759
_cell_angle_alpha   110.51230829
_cell_angle_beta   108.80708254
_cell_angle_gamma   102.10877096
_symmetry_Int_Tables_number   1
_chemical_formula_structural   Sr2NbH8
_chemical_formula_sum   'Sr2 Nb1 H8'
_cell_volume   239.19000466
_cell_formula_units_Z   1
loop_
 _symmetry_equiv_pos_site_id
 _symmetry_equiv_pos_as_xyz
  1  'x, y, z'
loop_
 _atom_site_type_symbol
 _atom_site_label
 _atom_site_symmetry_multiplicity
 _atom_site_fract_x
 _atom_site_fract_y
 _atom_site_fract_z
 _atom_site_occupancy
  H  H0  1  0.17992800  0.32234000  0.39596900  1
  H  H1  1  0.05074400  0.29711100  0.27314200  1
  H  H2  1  0.91532800  0.36363700  0.23264800  1
  H  H3  1  0.82018900  0.12967500  0.12290500  1
  Nb  Nb4  1  0.77707800  0.20421800  0.98612900  1
  Sr  Sr5  1  0.20525500  0.26715100  0.08895200  1
  H  H6  1  0.35118600  0.98627900  0.19715200  1
  Sr  Sr7  1  0.35960300  0.78862400  0.31385700  1
  H  H8  1  0.06659200  0.84991900  0.26792000  1
  H  H9  1  0.48259500  0.42111900  0.80401600  1
  H  H10  1  0.79733400  0.28922900  0.57234000  1
