# generated using pymatgen
data_SrNbH6
_symmetry_space_group_name_H-M   'P 1'
_cell_length_a   4.61717400
_cell_length_b   4.84957053
_cell_length_c   7.15777477
_cell_angle_alpha   80.78377170
_cell_angle_beta   81.67692160
_cell_angle_gamma   88.15154371
_symmetry_Int_Tables_number   1
_chemical_formula_structural   SrNbH6
_chemical_formula_sum   'Sr1 Nb1 H6'
_cell_volume   156.52998450
_cell_formula_units_Z   1
loop_
 _symmetry_equiv_pos_site_id
 _symmetry_equiv_pos_as_xyz
  1  'x, y, z'
loop_
 _atom_site_type_symbol
 _atom_site_label
 _atom_site_symmetry_multiplicity
 _atom_site_fract_x
 _atom_site_fract_y
 _atom_site_fract_z
 _atom_site_occupancy
  H  H0  1  0.06233400  0.53290600  0.80910000  1
  Nb  Nb1  1  0.26199800  0.77333200  0.76283600  1
  H  H2  1  0.69422600  0.82442800  0.15606300  1
  H  H3  1  0.74978100  0.82898900  0.12208900  1
  H  H4  1  0.66087100  0.80641900  0.28403000  1
  H  H5  1  0.57338400  0.98194000  0.14257300  1
  H  H6  1  0.32117900  0.22492700  0.26667200  1
  Sr  Sr7  1  0.80706100  0.12875500  0.44790300  1
