# generated using pymatgen
data_SrNb2H9
_symmetry_space_group_name_H-M   'P 1'
_cell_length_a   2.93615800
_cell_length_b   8.43778539
_cell_length_c   9.74447375
_cell_angle_alpha   113.80267292
_cell_angle_beta   98.63829128
_cell_angle_gamma   93.28924728
_symmetry_Int_Tables_number   1
_chemical_formula_structural   SrNb2H9
_chemical_formula_sum   'Sr1 Nb2 H9'
_cell_volume   216.50999675
_cell_formula_units_Z   1
loop_
 _symmetry_equiv_pos_site_id
 _symmetry_equiv_pos_as_xyz
  1  'x, y, z'
loop_
 _atom_site_type_symbol
 _atom_site_label
 _atom_site_symmetry_multiplicity
 _atom_site_fract_x
 _atom_site_fract_y
 _atom_site_fract_z
 _atom_site_occupancy
  H  H0  1  0.16984600  0.36035800  0.29394100  1
  H  H1  1  0.29182800  0.35332200  0.28174100  1
  H  H2  1  0.35073700  0.53321300  0.28475500  1
  Sr  Sr3  1  0.77395300  0.64292200  0.41258300  1
  H  H4  1  0.48734600  0.25646400  0.49634000  1
  H  H5  1  0.64798100  0.15723100  0.59551400  1
  H  H6  1  0.26626300  0.79800100  0.30318600  1
  Nb  Nb7  1  0.30212500  0.03179900  0.30344100  1
  H  H8  1  0.41419700  0.77615600  0.72144100  1
  Nb  Nb9  1  0.98450500  0.78461800  0.76958700  1
  H  H10  1  0.30990100  0.53074800  0.68190200  1
  H  H11  1  0.86330700  0.63888800  0.93455300  1
