# generated using pymatgen
data_SrNbH6
_symmetry_space_group_name_H-M   'P 1'
_cell_length_a   3.39645700
_cell_length_b   5.82067933
_cell_length_c   8.15559712
_cell_angle_alpha   102.15826878
_cell_angle_beta   95.29110804
_cell_angle_gamma   92.94385777
_symmetry_Int_Tables_number   1
_chemical_formula_structural   SrNbH6
_chemical_formula_sum   'Sr1 Nb1 H6'
_cell_volume   156.53000705
_cell_formula_units_Z   1
loop_
 _symmetry_equiv_pos_site_id
 _symmetry_equiv_pos_as_xyz
  1  'x, y, z'
loop_
 _atom_site_type_symbol
 _atom_site_label
 _atom_site_symmetry_multiplicity
 _atom_site_fract_x
 _atom_site_fract_y
 _atom_site_fract_z
 _atom_site_occupancy
  H  H0  1  0.55988200  0.34688700  0.94934000  1
  Sr  Sr1  1  0.88051500  0.32369900  0.74431400  1
  H  H2  1  0.39923100  0.68769400  0.46471500  1
  Nb  Nb3  1  0.15407200  0.87879000  0.55291500  1
  H  H4  1  0.54239100  0.97537500  0.44532400  1
  H  H5  1  0.17632700  0.10321900  0.34916500  1
  H  H6  1  0.70379200  0.78040400  0.13448500  1
  H  H7  1  0.15901400  0.52352500  0.18828300  1
