# generated using pymatgen
data_SrNbH7
_symmetry_space_group_name_H-M   'P 1'
_cell_length_a   4.14940900
_cell_length_b   5.77313040
_cell_length_c   7.25986549
_cell_angle_alpha   94.17661706
_cell_angle_beta   100.37252951
_cell_angle_gamma   91.93071215
_symmetry_Int_Tables_number   1
_chemical_formula_structural   SrNbH7
_chemical_formula_sum   'Sr1 Nb1 H7'
_cell_volume   170.42000329
_cell_formula_units_Z   1
loop_
 _symmetry_equiv_pos_site_id
 _symmetry_equiv_pos_as_xyz
  1  'x, y, z'
loop_
 _atom_site_type_symbol
 _atom_site_label
 _atom_site_symmetry_multiplicity
 _atom_site_fract_x
 _atom_site_fract_y
 _atom_site_fract_z
 _atom_site_occupancy
  H  H0  1  0.22406700  0.73202600  0.52026900  1
  Sr  Sr1  1  0.28300800  0.98183100  0.49009600  1
  H  H2  1  0.87481800  0.63101600  0.19761200  1
  H  H3  1  0.54441900  0.59851900  0.10958200  1
  H  H4  1  0.36870600  0.23036500  0.15686100  1
  H  H5  1  0.41328900  0.41098500  0.30318900  1
  Nb  Nb6  1  0.50910500  0.67175100  0.33451300  1
  H  H7  1  0.65053600  0.37620300  0.49075900  1
  H  H8  1  0.23735400  0.25233800  0.82708400  1
