# generated using pymatgen
data_SrNbH8
_symmetry_space_group_name_H-M   'P 1'
_cell_length_a   4.72957600
_cell_length_b   6.52909614
_cell_length_c   6.91584810
_cell_angle_alpha   105.99831179
_cell_angle_beta   105.85122891
_cell_angle_gamma   104.87986224
_symmetry_Int_Tables_number   1
_chemical_formula_structural   SrNbH8
_chemical_formula_sum   'Sr1 Nb1 H8'
_cell_volume   184.30998048
_cell_formula_units_Z   1
loop_
 _symmetry_equiv_pos_site_id
 _symmetry_equiv_pos_as_xyz
  1  'x, y, z'
loop_
 _atom_site_type_symbol
 _atom_site_label
 _atom_site_symmetry_multiplicity
 _atom_site_fract_x
 _atom_site_fract_y
 _atom_site_fract_z
 _atom_site_occupancy
  H  H0  1  0.24447400  0.42947500  0.66810000  1
  H  H1  1  0.42568600  0.57397900  0.90042300  1
  H  H2  1  0.29458100  0.37455400  0.32709900  1
  Nb  Nb3  1  0.56058900  0.45272400  0.45838900  1
  H  H4  1  0.92532900  0.25235400  0.39365000  1
  H  H5  1  0.09031700  0.08957400  0.32493300  1
  H  H6  1  0.48984800  0.71200400  0.31250800  1
  H  H7  1  0.32120800  0.92092400  0.38490800  1
  H  H8  1  0.37772000  0.81682600  0.59870500  1
  Sr  Sr9  1  0.88546800  0.13574000  0.97511400  1
