# generated using pymatgen
data_SrNbH6
_symmetry_space_group_name_H-M   'P 1'
_cell_length_a   5.37324400
_cell_length_b   5.44677538
_cell_length_c   5.49703226
_cell_angle_alpha   85.61345055
_cell_angle_beta   77.74549371
_cell_angle_gamma   86.07976665
_symmetry_Int_Tables_number   1
_chemical_formula_structural   SrNbH6
_chemical_formula_sum   'Sr1 Nb1 H6'
_cell_volume   156.53000365
_cell_formula_units_Z   1
loop_
 _symmetry_equiv_pos_site_id
 _symmetry_equiv_pos_as_xyz
  1  'x, y, z'
loop_
 _atom_site_type_symbol
 _atom_site_label
 _atom_site_symmetry_multiplicity
 _atom_site_fract_x
 _atom_site_fract_y
 _atom_site_fract_z
 _atom_site_occupancy
  H  H0  1  0.15193300  0.49205600  0.50579000  1
  H  H1  1  0.39328000  0.55633200  0.50750500  1
  H  H2  1  0.65655400  0.63500100  0.40619700  1
  H  H3  1  0.07898800  0.52711000  0.78364500  1
  H  H4  1  0.81433200  0.67114900  0.86279800  1
  Sr  Sr5  1  0.32312900  0.27290700  0.68240400  1
  Nb  Nb6  1  0.49316800  0.84934700  0.74118800  1
  H  H7  1  0.99211600  0.07328100  0.34988800  1
