# generated using pymatgen
data_Sr(NbH4)2
_symmetry_space_group_name_H-M   'P 1'
_cell_length_a   3.40458800
_cell_length_b   7.70294961
_cell_length_c   8.03899732
_cell_angle_alpha   79.40175003
_cell_angle_beta   78.35213448
_cell_angle_gamma   84.66547210
_symmetry_Int_Tables_number   1
_chemical_formula_structural   Sr(NbH4)2
_chemical_formula_sum   'Sr1 Nb2 H8'
_cell_volume   202.62002705
_cell_formula_units_Z   1
loop_
 _symmetry_equiv_pos_site_id
 _symmetry_equiv_pos_as_xyz
  1  'x, y, z'
loop_
 _atom_site_type_symbol
 _atom_site_label
 _atom_site_symmetry_multiplicity
 _atom_site_fract_x
 _atom_site_fract_y
 _atom_site_fract_z
 _atom_site_occupancy
  H  H0  1  0.24099400  0.67342900  0.45983700  1
  H  H1  1  0.24443000  0.70098300  0.50160400  1
  H  H2  1  0.03712300  0.58575700  0.82776900  1
  Nb  Nb3  1  0.06052400  0.61333500  0.68511500  1
  H  H4  1  0.89628300  0.44836700  0.94324500  1
  H  H5  1  0.66845700  0.74966700  0.93704300  1
  H  H6  1  0.66464000  0.71092000  0.89255900  1
  Sr  Sr7  1  0.25219000  0.67961500  0.91823200  1
  H  H8  1  0.48954900  0.47842200  0.41097100  1
  H  H9  1  0.75493400  0.93273200  0.02812900  1
  Nb  Nb10  1  0.29001800  0.59525900  0.22944000  1
