# generated using pymatgen
data_Sr2NbH7
_symmetry_space_group_name_H-M   'P 1'
_cell_length_a   4.14945800
_cell_length_b   6.00697704
_cell_length_c   9.44248697
_cell_angle_alpha   90.89854038
_cell_angle_beta   96.66253182
_cell_angle_gamma   105.22914615
_symmetry_Int_Tables_number   1
_chemical_formula_structural   Sr2NbH7
_chemical_formula_sum   'Sr2 Nb1 H7'
_cell_volume   225.30002012
_cell_formula_units_Z   1
loop_
 _symmetry_equiv_pos_site_id
 _symmetry_equiv_pos_as_xyz
  1  'x, y, z'
loop_
 _atom_site_type_symbol
 _atom_site_label
 _atom_site_symmetry_multiplicity
 _atom_site_fract_x
 _atom_site_fract_y
 _atom_site_fract_z
 _atom_site_occupancy
  H  H0  1  0.35360600  0.16698800  0.96750300  1
  Nb  Nb1  1  0.33254500  0.10163700  0.08513000  1
  H  H2  1  0.04296300  0.37523300  0.97575500  1
  H  H3  1  0.47498500  0.28245600  0.40556600  1
  H  H4  1  0.50973500  0.44128900  0.27270000  1
  H  H5  1  0.65113300  0.06526800  0.38478800  1
  H  H6  1  0.44515000  0.57114800  0.55063000  1
  Sr  Sr7  1  0.41149700  0.34031900  0.67732300  1
  H  H8  1  0.63957600  0.66498800  0.08488600  1
  Sr  Sr9  1  0.83462000  0.04990500  0.68809700  1
