# generated using pymatgen
data_SrNbH8
_symmetry_space_group_name_H-M   'P 1'
_cell_length_a   4.08436800
_cell_length_b   6.26944176
_cell_length_c   7.70458263
_cell_angle_alpha   109.30687129
_cell_angle_beta   96.54276553
_cell_angle_gamma   92.41401341
_symmetry_Int_Tables_number   1
_chemical_formula_structural   SrNbH8
_chemical_formula_sum   'Sr1 Nb1 H8'
_cell_volume   184.30998026
_cell_formula_units_Z   1
loop_
 _symmetry_equiv_pos_site_id
 _symmetry_equiv_pos_as_xyz
  1  'x, y, z'
loop_
 _atom_site_type_symbol
 _atom_site_label
 _atom_site_symmetry_multiplicity
 _atom_site_fract_x
 _atom_site_fract_y
 _atom_site_fract_z
 _atom_site_occupancy
  H  H0  1  0.69109500  0.94762400  0.69493300  1
  H  H1  1  0.71506800  0.01685200  0.62647500  1
  H  H2  1  0.92076100  0.92858800  0.58355900  1
  H  H3  1  0.74439800  0.16084800  0.79448000  1
  H  H4  1  0.90056500  0.13693700  0.34957000  1
  Nb  Nb5  1  0.98683100  0.14469600  0.17002700  1
  H  H6  1  0.89407200  0.44636900  0.46069100  1
  H  H7  1  0.75511100  0.91465500  0.95136600  1
  H  H8  1  0.35796300  0.31166400  0.92654200  1
  Sr  Sr9  1  0.07531300  0.55138800  0.12372800  1
