# generated using pymatgen
data_Sr2NbH7
_symmetry_space_group_name_H-M   'P 1'
_cell_length_a   5.25326700
_cell_length_b   6.39466194
_cell_length_c   7.57951903
_cell_angle_alpha   68.30404131
_cell_angle_beta   85.99923859
_cell_angle_gamma   72.43606618
_symmetry_Int_Tables_number   1
_chemical_formula_structural   Sr2NbH7
_chemical_formula_sum   'Sr2 Nb1 H7'
_cell_volume   225.30001166
_cell_formula_units_Z   1
loop_
 _symmetry_equiv_pos_site_id
 _symmetry_equiv_pos_as_xyz
  1  'x, y, z'
loop_
 _atom_site_type_symbol
 _atom_site_label
 _atom_site_symmetry_multiplicity
 _atom_site_fract_x
 _atom_site_fract_y
 _atom_site_fract_z
 _atom_site_occupancy
  H  H0  1  0.47761400  0.89634900  0.03393200  1
  H  H1  1  0.69291500  0.79022200  0.04305800  1
  Nb  Nb2  1  0.63055400  0.94366200  0.10681600  1
  H  H3  1  0.18472200  0.79391200  0.12979100  1
  Sr  Sr4  1  0.19170400  0.52485200  0.18618100  1
  H  H5  1  0.17674500  0.24250500  0.49141700  1
  Sr  Sr6  1  0.01006700  0.43670600  0.54196200  1
  H  H7  1  0.24100100  0.04164700  0.77542300  1
  H  H8  1  0.92939600  0.78292300  0.35879300  1
  H  H9  1  0.07348600  0.85772900  0.63789900  1
