# generated using pymatgen
data_Sr2NbH8
_symmetry_space_group_name_H-M   'P 1'
_cell_length_a   5.67543100
_cell_length_b   6.36043942
_cell_length_c   7.81334987
_cell_angle_alpha   83.72545549
_cell_angle_beta   71.45405639
_cell_angle_gamma   63.52836326
_symmetry_Int_Tables_number   1
_chemical_formula_structural   Sr2NbH8
_chemical_formula_sum   'Sr2 Nb1 H8'
_cell_volume   239.19000998
_cell_formula_units_Z   1
loop_
 _symmetry_equiv_pos_site_id
 _symmetry_equiv_pos_as_xyz
  1  'x, y, z'
loop_
 _atom_site_type_symbol
 _atom_site_label
 _atom_site_symmetry_multiplicity
 _atom_site_fract_x
 _atom_site_fract_y
 _atom_site_fract_z
 _atom_site_occupancy
  H  H0  1  0.52129000  0.18693500  0.23174900  1
  H  H1  1  0.45929100  0.26829500  0.23813200  1
  H  H2  1  0.33946200  0.37448200  0.43774300  1
  H  H3  1  0.87637500  0.28317100  0.97145900  1
  H  H4  1  0.75451100  0.31054600  0.83451800  1
  Nb  Nb5  1  0.93701300  0.29393000  0.15717700  1
  H  H6  1  0.48347800  0.23778600  0.89544700  1
  H  H7  1  0.57808300  0.88433900  0.52845000  1
  H  H8  1  0.46231600  0.92826500  0.80123100  1
  Sr  Sr9  1  0.49641900  0.69534600  0.03812300  1
  Sr  Sr10  1  0.95890400  0.89349900  0.80016400  1
