# generated using pymatgen
data_SrNbH8
_symmetry_space_group_name_H-M   'P 1'
_cell_length_a   4.34659200
_cell_length_b   4.93785705
_cell_length_c   5.04892356
_cell_angle_alpha   94.36406030
_cell_angle_beta   105.18783959
_cell_angle_gamma   115.15889009
_symmetry_Int_Tables_number   1
_chemical_formula_structural   SrNbH8
_chemical_formula_sum   'Sr1 Nb1 H8'
_cell_volume   92.45247516
_cell_formula_units_Z   1
loop_
 _symmetry_equiv_pos_site_id
 _symmetry_equiv_pos_as_xyz
  1  'x, y, z'
loop_
 _atom_site_type_symbol
 _atom_site_label
 _atom_site_symmetry_multiplicity
 _atom_site_fract_x
 _atom_site_fract_y
 _atom_site_fract_z
 _atom_site_occupancy
  H  H0  1  0.63122700  0.17036100  0.66103200  1
  Sr  Sr1  1  0.49041700  0.81364600  0.59913600  1
  H  H2  1  0.78899100  0.76160600  0.43304800  1
  H  H3  1  0.89522300  0.22763500  0.31737900  1
  H  H4  1  0.96766900  0.38723300  0.35273200  1
  Nb  Nb5  1  0.12491600  0.16362500  0.58858800  1
  H  H6  1  0.16490900  0.21643000  0.92434700  1
  H  H7  1  0.51554000  0.88423300  0.07863700  1
  H  H8  1  0.40293600  0.22749000  0.31837500  1
  H  H9  1  0.95430300  0.80659500  0.11917300  1
