# generated using pymatgen
data_Sr2Nb3H14
_symmetry_space_group_name_H-M   'P 1'
_cell_length_a   4.92991900
_cell_length_b   5.93125528
_cell_length_c   5.99234325
_cell_angle_alpha   88.75151264
_cell_angle_beta   82.03085763
_cell_angle_gamma   89.96240337
_symmetry_Int_Tables_number   1
_chemical_formula_structural   Sr2Nb3H14
_chemical_formula_sum   'Sr2 Nb3 H14'
_cell_volume   173.48595244
_cell_formula_units_Z   1
loop_
 _symmetry_equiv_pos_site_id
 _symmetry_equiv_pos_as_xyz
  1  'x, y, z'
loop_
 _atom_site_type_symbol
 _atom_site_label
 _atom_site_symmetry_multiplicity
 _atom_site_fract_x
 _atom_site_fract_y
 _atom_site_fract_z
 _atom_site_occupancy
  Sr  Sr0  1  0.47743800  0.49612500  0.71007400  1
  H  H1  1  0.63157600  0.68162500  0.59706400  1
  H  H2  1  0.44774800  0.82468200  0.44623300  1
  Nb  Nb3  1  0.03665000  0.97651700  0.92526400  1
  H  H4  1  0.26646200  0.06824400  0.71793000  1
  H  H5  1  0.02962800  0.76024100  0.74979300  1
  H  H6  1  0.44933300  0.17991500  0.47166100  1
  Sr  Sr7  1  0.47743800  0.49612500  0.21007400  1
  H  H8  1  0.63172100  0.68262100  0.10477700  1
  H  H9  1  0.44774800  0.82468200  0.94623300  1
  H  H10  1  0.44933300  0.17991500  0.97166100  1
  H  H11  1  0.62051500  0.07565300  0.83509100  1
  H  H12  1  0.02962800  0.76024100  0.24979300  1
  H  H13  1  0.93156200  0.81790700  0.21251200  1
  H  H14  1  0.26646200  0.06824400  0.21793000  1
  H  H15  1  0.95851000  0.14360600  0.19693800  1
  Nb  Nb16  1  0.03665000  0.97651700  0.42526400  1
  Nb  Nb17  1  0.89884000  0.48417900  0.21749300  1
  H  H18  1  0.96062500  0.41294700  0.68779200  1
