# generated using pymatgen
data_SrNbH8
_symmetry_space_group_name_H-M   'P 1'
_cell_length_a   3.25713300
_cell_length_b   4.77408772
_cell_length_c   6.01710177
_cell_angle_alpha   96.48776448
_cell_angle_beta   95.89721282
_cell_angle_gamma   90.55095718
_symmetry_Int_Tables_number   1
_chemical_formula_structural   SrNbH8
_chemical_formula_sum   'Sr1 Nb1 H8'
_cell_volume   92.45245374
_cell_formula_units_Z   1
loop_
 _symmetry_equiv_pos_site_id
 _symmetry_equiv_pos_as_xyz
  1  'x, y, z'
loop_
 _atom_site_type_symbol
 _atom_site_label
 _atom_site_symmetry_multiplicity
 _atom_site_fract_x
 _atom_site_fract_y
 _atom_site_fract_z
 _atom_site_occupancy
  H  H0  1  0.43014100  0.54835000  0.37680900  1
  H  H1  1  0.30328800  0.36406600  0.11848200  1
  H  H2  1  0.81180700  0.90649800  0.13632200  1
  H  H3  1  0.92755900  0.99487000  0.95524800  1
  H  H4  1  0.73126300  0.61979400  0.97564400  1
  H  H5  1  0.93565400  0.09011900  0.38818800  1
  Nb  Nb6  1  0.85793800  0.48962400  0.22986900  1
  H  H7  1  0.50947300  0.89105800  0.53315400  1
  Sr  Sr8  1  0.11685400  0.61661700  0.74445800  1
  H  H9  1  0.62134600  0.26647800  0.74733000  1
