# generated using pymatgen
data_Sr(NbH6)2
_symmetry_space_group_name_H-M   'P 1'
_cell_length_a   3.79887900
_cell_length_b   4.92221076
_cell_length_c   6.24568996
_cell_angle_alpha   90.95224852
_cell_angle_beta   98.33576751
_cell_angle_gamma   90.03177789
_symmetry_Int_Tables_number   1
_chemical_formula_structural   Sr(NbH6)2
_chemical_formula_sum   'Sr1 Nb2 H12'
_cell_volume   115.53714587
_cell_formula_units_Z   1
loop_
 _symmetry_equiv_pos_site_id
 _symmetry_equiv_pos_as_xyz
  1  'x, y, z'
loop_
 _atom_site_type_symbol
 _atom_site_label
 _atom_site_symmetry_multiplicity
 _atom_site_fract_x
 _atom_site_fract_y
 _atom_site_fract_z
 _atom_site_occupancy
  H  H0  1  0.66812200  0.06578200  0.48530900  1
  H  H1  1  0.66765200  0.26288500  0.49680500  1
  Nb  Nb2  1  0.65458600  0.67969400  0.42410700  1
  H  H3  1  0.44454500  0.68630400  0.21097800  1
  H  H4  1  0.88421100  0.68673500  0.20986400  1
  H  H5  1  0.06830400  0.68443600  0.73596300  1
  H  H6  1  0.15808200  0.65552900  0.51600100  1
  Nb  Nb7  1  0.64956500  0.18420900  0.84292100  1
  H  H8  1  0.63881900  0.17515900  0.06939000  1
  H  H9  1  0.89476100  0.43501900  0.93266600  1
  H  H10  1  0.39094300  0.93443500  0.76850300  1
  H  H11  1  0.89476100  0.93501900  0.93266600  1
  H  H12  1  0.39094300  0.43443500  0.76850300  1
  H  H13  1  0.06830400  0.18443600  0.73596300  1
  Sr  Sr14  1  0.16087700  0.18906800  0.25811400  1
