# generated using pymatgen
data_Sr3NbH10
_symmetry_space_group_name_H-M   'P 1'
_cell_length_a   5.08940900
_cell_length_b   5.93475307
_cell_length_c   6.55829545
_cell_angle_alpha   83.77916743
_cell_angle_beta   81.39396482
_cell_angle_gamma   87.39136144
_symmetry_Int_Tables_number   1
_chemical_formula_structural   Sr3NbH10
_chemical_formula_sum   'Sr3 Nb1 H10'
_cell_volume   194.61911683
_cell_formula_units_Z   1
loop_
 _symmetry_equiv_pos_site_id
 _symmetry_equiv_pos_as_xyz
  1  'x, y, z'
loop_
 _atom_site_type_symbol
 _atom_site_label
 _atom_site_symmetry_multiplicity
 _atom_site_fract_x
 _atom_site_fract_y
 _atom_site_fract_z
 _atom_site_occupancy
  H  H0  1  0.48743600  0.79388100  0.03171500  1
  H  H1  1  0.74635700  0.77096300  0.09403800  1
  Sr  Sr2  1  0.56945800  0.92046900  0.78162300  1
  H  H3  1  0.15709300  0.05376700  0.82468200  1
  H  H4  1  0.15709300  0.55376700  0.82468200  1
  H  H5  1  0.84447200  0.40358600  0.81638500  1
  H  H6  1  0.15867800  0.02833900  0.17991500  1
  H  H7  1  0.95313500  0.12180500  0.40384300  1
  Sr  Sr8  1  0.18678300  0.28992600  0.49612500  1
  Nb  Nb9  1  0.94295700  0.26922800  0.09374300  1
  H  H10  1  0.56713400  0.13599000  0.37077000  1
  H  H11  1  0.15867800  0.52833900  0.17991500  1
  H  H12  1  0.48743600  0.29388100  0.03171500  1
  Sr  Sr13  1  0.18678300  0.78992600  0.49612500  1
