# generated using pymatgen
data_SrNbH6
_symmetry_space_group_name_H-M   'P 1'
_cell_length_a   3.52294400
_cell_length_b   4.17291610
_cell_length_c   5.54503972
_cell_angle_alpha   86.66708561
_cell_angle_beta   84.13148149
_cell_angle_gamma   89.28810198
_symmetry_Int_Tables_number   1
_chemical_formula_structural   SrNbH6
_chemical_formula_sum   'Sr1 Nb1 H6'
_cell_volume   80.95124909
_cell_formula_units_Z   1
loop_
 _symmetry_equiv_pos_site_id
 _symmetry_equiv_pos_as_xyz
  1  'x, y, z'
loop_
 _atom_site_type_symbol
 _atom_site_label
 _atom_site_symmetry_multiplicity
 _atom_site_fract_x
 _atom_site_fract_y
 _atom_site_fract_z
 _atom_site_occupancy
  H  H0  1  0.20799700  0.39818100  0.22931900  1
  H  H1  1  0.46972700  0.67293700  0.26234100  1
  Nb  Nb2  1  0.77529400  0.25970400  0.38720200  1
  H  H3  1  0.12241000  0.37100500  0.59741600  1
  H  H4  1  0.61512900  0.38416200  0.69218000  1
  H  H5  1  0.89045400  0.85424900  0.51916400  1
  H  H6  1  0.72950600  0.32245300  0.04135500  1
  Sr  Sr7  1  0.28862100  0.94146700  0.88292900  1
