# generated using pymatgen
data_SrNb2H7
_symmetry_space_group_name_H-M   'P 1'
_cell_length_a   4.65486700
_cell_length_b   4.68679957
_cell_length_c   5.24688147
_cell_angle_alpha   92.50417503
_cell_angle_beta   114.22789113
_cell_angle_gamma   119.16083043
_symmetry_Int_Tables_number   1
_chemical_formula_structural   SrNb2H7
_chemical_formula_sum   'Sr1 Nb2 H7'
_cell_volume   86.78410763
_cell_formula_units_Z   1
loop_
 _symmetry_equiv_pos_site_id
 _symmetry_equiv_pos_as_xyz
  1  'x, y, z'
loop_
 _atom_site_type_symbol
 _atom_site_label
 _atom_site_symmetry_multiplicity
 _atom_site_fract_x
 _atom_site_fract_y
 _atom_site_fract_z
 _atom_site_occupancy
  Nb  Nb0  1  0.61601300  0.96309900  0.02842700  1
  H  H1  1  0.28105400  0.00616200  0.76924700  1
  Nb  Nb2  1  0.28014100  0.28913100  0.01902000  1
  H  H3  1  0.79614200  0.00881200  0.78200100  1
  H  H4  1  0.62344700  0.70355800  0.26259600  1
  H  H5  1  0.28627200  0.54052100  0.78266800  1
  H  H6  1  0.39979800  0.04026500  0.22371800  1
  H  H7  1  0.74380100  0.41590900  0.03626200  1
  H  H8  1  0.15472800  0.16685100  0.43304800  1
  Sr  Sr9  1  0.69462300  0.45969500  0.61519700  1
