# generated using pymatgen
data_SrNb2H9
_symmetry_space_group_name_H-M   'P 1'
_cell_length_a   4.74506600
_cell_length_b   6.35492235
_cell_length_c   6.84847522
_cell_angle_alpha   83.88180991
_cell_angle_beta   81.09600509
_cell_angle_gamma   74.97530015
_symmetry_Int_Tables_number   1
_chemical_formula_structural   SrNb2H9
_chemical_formula_sum   'Sr2 Nb4 H18'
_cell_volume   196.57063548
_cell_formula_units_Z   2
loop_
 _symmetry_equiv_pos_site_id
 _symmetry_equiv_pos_as_xyz
  1  'x, y, z'
loop_
 _atom_site_type_symbol
 _atom_site_label
 _atom_site_symmetry_multiplicity
 _atom_site_fract_x
 _atom_site_fract_y
 _atom_site_fract_z
 _atom_site_occupancy
  Nb  Nb0  1  0.71598200  0.67688900  0.68956900  1
  H  H1  1  0.90155100  0.58742500  0.86254300  1
  H  H2  1  0.64594600  0.96101000  0.54863700  1
  H  H3  1  0.90150800  0.86257200  0.58745700  1
  H  H4  1  0.14720900  0.71263900  0.55001700  1
  Nb  Nb5  1  0.08133700  0.99514700  0.41697600  1
  H  H6  1  0.87384300  0.12899500  0.37637000  1
  H  H7  1  0.00826900  0.28019000  0.27467200  1
  H  H8  1  0.87382500  0.37638900  0.12899600  1
  H  H9  1  0.00826900  0.78019000  0.27467200  1
  H  H10  1  0.90151300  0.86242900  0.13755100  1
  Nb  Nb11  1  0.08133700  0.49514700  0.41697600  1
  H  H12  1  0.87384200  0.62366600  0.37627100  1
  H  H13  1  0.64594600  0.46101000  0.54863700  1
  H  H14  1  0.87381100  0.37629700  0.62369800  1
  H  H15  1  0.14720900  0.21263900  0.55001700  1
  Nb  Nb16  1  0.71598200  0.17688900  0.68956900  1
  H  H17  1  0.90155300  0.13752300  0.86240200  1
  H  H18  1  0.27543000  0.14684500  0.80927500  1
  H  H19  1  0.27543000  0.64684500  0.80927500  1
  H  H20  1  0.51211300  0.53094900  0.27603800  1
  H  H21  1  0.51211300  0.03094900  0.27603800  1
  Sr  Sr22  1  0.39242500  0.83891200  0.04438300  1
  Sr  Sr23  1  0.39242500  0.33891200  0.04438300  1
