# generated using pymatgen
data_Sr2NbH7
_symmetry_space_group_name_H-M   'P 1'
_cell_length_a   3.72685900
_cell_length_b   3.80052962
_cell_length_c   8.17234766
_cell_angle_alpha   102.80177429
_cell_angle_beta   103.12628742
_cell_angle_gamma   90.05285554
_symmetry_Int_Tables_number   1
_chemical_formula_structural   Sr2NbH7
_chemical_formula_sum   'Sr2 Nb1 H7'
_cell_volume   109.76671537
_cell_formula_units_Z   1
loop_
 _symmetry_equiv_pos_site_id
 _symmetry_equiv_pos_as_xyz
  1  'x, y, z'
loop_
 _atom_site_type_symbol
 _atom_site_label
 _atom_site_symmetry_multiplicity
 _atom_site_fract_x
 _atom_site_fract_y
 _atom_site_fract_z
 _atom_site_occupancy
  H  H0  1  0.48332000  0.35096500  0.28423200  1
  H  H1  1  0.58422800  0.19645300  0.47442100  1
  H  H2  1  0.58894700  0.66394700  0.48627600  1
  H  H3  1  0.00162500  0.37215500  0.31795800  1
  Nb  Nb4  1  0.34335800  0.23416300  0.03918000  1
  H  H5  1  0.44948500  0.82147800  0.21513700  1
  Sr  Sr6  1  0.14893400  0.01372000  0.60637700  1
  H  H7  1  0.23605000  0.59977300  0.78306900  1
  H  H8  1  0.74004700  0.10596400  0.79040400  1
  Sr  Sr9  1  0.82813100  0.69410700  0.97170000  1
