# generated using pymatgen
data_Sr2NbH10
_symmetry_space_group_name_H-M   'P 1'
_cell_length_a   4.78399200
_cell_length_b   5.69559859
_cell_length_c   5.81486538
_cell_angle_alpha   76.96790943
_cell_angle_beta   77.04859698
_cell_angle_gamma   84.97144326
_symmetry_Int_Tables_number   1
_chemical_formula_structural   Sr2NbH10
_chemical_formula_sum   'Sr2 Nb1 H10'
_cell_volume   150.31902980
_cell_formula_units_Z   1
loop_
 _symmetry_equiv_pos_site_id
 _symmetry_equiv_pos_as_xyz
  1  'x, y, z'
loop_
 _atom_site_type_symbol
 _atom_site_label
 _atom_site_symmetry_multiplicity
 _atom_site_fract_x
 _atom_site_fract_y
 _atom_site_fract_z
 _atom_site_occupancy
  H  H0  1  0.06803000  0.30640000  0.05399900  1
  Sr  Sr1  1  0.03545800  0.43729200  0.80444200  1
  Sr  Sr2  1  0.03545800  0.43729200  0.30444200  1
  H  H3  1  0.10523900  0.98039900  0.30516300  1
  H  H4  1  0.93169600  0.78369500  0.55458100  1
  H  H5  1  0.66078000  0.75457300  0.06007000  1
  H  H6  1  0.60905700  0.81623500  0.30457900  1
  H  H7  1  0.60905700  0.81623500  0.80457900  1
  Nb  Nb8  1  0.35043500  0.89065300  0.55435300  1
  H  H9  1  0.42269200  0.19121500  0.55317600  1
  H  H10  1  0.95061500  0.13312600  0.55541700  1
  H  H11  1  0.10523900  0.98039900  0.80516300  1
  H  H12  1  0.51204700  0.54018500  0.55461800  1
