# generated using pymatgen
data_SrNbH6
_symmetry_space_group_name_H-M   'P 1'
_cell_length_a   4.58209900
_cell_length_b   6.29159700
_cell_length_c   6.47936830
_cell_angle_alpha   115.82217729
_cell_angle_beta   93.41826763
_cell_angle_gamma   107.35629492
_symmetry_Int_Tables_number   1
_chemical_formula_structural   SrNbH6
_chemical_formula_sum   'Sr1 Nb1 H6'
_cell_volume   156.53001499
_cell_formula_units_Z   1
loop_
 _symmetry_equiv_pos_site_id
 _symmetry_equiv_pos_as_xyz
  1  'x, y, z'
loop_
 _atom_site_type_symbol
 _atom_site_label
 _atom_site_symmetry_multiplicity
 _atom_site_fract_x
 _atom_site_fract_y
 _atom_site_fract_z
 _atom_site_occupancy
  H  H0  1  0.63243800  0.66779700  0.77725300  1
  H  H1  1  0.70668600  0.64617100  0.65711200  1
  H  H2  1  0.00391600  0.34062700  0.91274800  1
  H  H3  1  0.98461600  0.13546700  0.93837500  1
  H  H4  1  0.68804600  0.18727200  0.33080900  1
  Nb  Nb5  1  0.69604100  0.05056400  0.57734900  1
  H  H6  1  0.24613500  0.04094800  0.66484600  1
  Sr  Sr7  1  0.69030000  0.64020900  0.26179200  1
