# generated using pymatgen
data_SrNbH8
_symmetry_space_group_name_H-M   'P 1'
_cell_length_a   3.80962400
_cell_length_b   4.15167960
_cell_length_c   6.38835847
_cell_angle_alpha   87.29748571
_cell_angle_beta   86.47031988
_cell_angle_gamma   113.14302212
_symmetry_Int_Tables_number   1
_chemical_formula_structural   SrNbH8
_chemical_formula_sum   'Sr1 Nb1 H8'
_cell_volume   92.45249725
_cell_formula_units_Z   1
loop_
 _symmetry_equiv_pos_site_id
 _symmetry_equiv_pos_as_xyz
  1  'x, y, z'
loop_
 _atom_site_type_symbol
 _atom_site_label
 _atom_site_symmetry_multiplicity
 _atom_site_fract_x
 _atom_site_fract_y
 _atom_site_fract_z
 _atom_site_occupancy
  Sr  Sr0  1  0.78983500  0.21684500  0.89645800  1
  H  H1  1  0.75127200  0.25635400  0.15861000  1
  H  H2  1  0.29064500  0.52033600  0.60280100  1
  H  H3  1  0.62586300  0.81631000  0.63685200  1
  H  H4  1  0.24961600  0.77965800  0.11883200  1
  H  H5  1  0.26168600  0.68669800  0.18582000  1
  H  H6  1  0.18383700  0.80206600  0.99769300  1
  Nb  Nb7  1  0.81813100  0.15317600  0.43001900  1
  H  H8  1  0.56047800  0.85323500  0.34653100  1
  H  H9  1  0.18718900  0.08005700  0.50419300  1
