# generated using pymatgen
data_Sr2NbH7
_symmetry_space_group_name_H-M   'P 1'
_cell_length_a   3.25090700
_cell_length_b   4.12738989
_cell_length_c   8.48977995
_cell_angle_alpha   78.28807086
_cell_angle_beta   80.13263719
_cell_angle_gamma   85.36103521
_symmetry_Int_Tables_number   1
_chemical_formula_structural   Sr2NbH7
_chemical_formula_sum   'Sr2 Nb1 H7'
_cell_volume   109.76668578
_cell_formula_units_Z   1
loop_
 _symmetry_equiv_pos_site_id
 _symmetry_equiv_pos_as_xyz
  1  'x, y, z'
loop_
 _atom_site_type_symbol
 _atom_site_label
 _atom_site_symmetry_multiplicity
 _atom_site_fract_x
 _atom_site_fract_y
 _atom_site_fract_z
 _atom_site_occupancy
  H  H0  1  0.55554700  0.02534600  0.50428000  1
  H  H1  1  0.47969300  0.73409900  0.55090300  1
  Nb  Nb2  1  0.02406300  0.50761100  0.55132000  1
  H  H3  1  0.75723500  0.63582700  0.68187800  1
  H  H4  1  0.17073400  0.42236000  0.72404300  1
  H  H5  1  0.26838100  0.76209400  0.91618300  1
  H  H6  1  0.10972600  0.80570300  0.00031600  1
  Sr  Sr7  1  0.09342200  0.33003600  0.02668400  1
  H  H8  1  0.71606100  0.14158800  0.08820900  1
  Sr  Sr9  1  0.48561900  0.44054500  0.23593900  1
