# generated using pymatgen
data_Sr2Nb2H13
_symmetry_space_group_name_H-M   'P 1'
_cell_length_a   5.12729300
_cell_length_b   5.67739877
_cell_length_c   6.00026722
_cell_angle_alpha   80.45883259
_cell_angle_beta   79.22428183
_cell_angle_gamma   80.66519129
_symmetry_Int_Tables_number   1
_chemical_formula_structural   Sr2Nb2H13
_chemical_formula_sum   'Sr2 Nb2 H13'
_cell_volume   167.65311755
_cell_formula_units_Z   1
loop_
 _symmetry_equiv_pos_site_id
 _symmetry_equiv_pos_as_xyz
  1  'x, y, z'
loop_
 _atom_site_type_symbol
 _atom_site_label
 _atom_site_symmetry_multiplicity
 _atom_site_fract_x
 _atom_site_fract_y
 _atom_site_fract_z
 _atom_site_occupancy
  H  H0  1  0.27876000  0.42871300  0.98319300  1
  H  H1  1  0.14929700  0.43879500  0.05795700  1
  H  H2  1  0.55987200  0.41457800  0.25276300  1
  H  H3  1  0.62662200  0.62623700  0.03783000  1
  Nb  Nb4  1  0.26059900  0.61235300  0.26817100  1
  H  H5  1  0.12212100  0.39600100  0.42605400  1
  H  H6  1  0.19785000  0.13524700  0.61401800  1
  H  H7  1  0.71167800  0.14179100  0.40826200  1
  H  H8  1  0.55987200  0.91457800  0.25276300  1
  H  H9  1  0.62662200  0.12623700  0.03783000  1
  Nb  Nb10  1  0.26059900  0.11235300  0.26817100  1
  H  H11  1  0.12212100  0.89600100  0.42605400  1
  H  H12  1  0.19785000  0.63524700  0.61401800  1
  H  H13  1  0.71167800  0.64179100  0.40826200  1
  H  H14  1  0.14929700  0.93879500  0.05795700  1
  Sr  Sr15  1  0.66578700  0.38023100  0.75514500  1
  Sr  Sr16  1  0.66578700  0.88023100  0.75514500  1
