# generated using pymatgen
data_Sr2NbH7
_symmetry_space_group_name_H-M   'P 1'
_cell_length_a   3.47813400
_cell_length_b   5.33484749
_cell_length_c   6.69778908
_cell_angle_alpha   67.99009198
_cell_angle_beta   82.51758320
_cell_angle_gamma   72.32988393
_symmetry_Int_Tables_number   1
_chemical_formula_structural   Sr2NbH7
_chemical_formula_sum   'Sr2 Nb1 H7'
_cell_volume   109.76671369
_cell_formula_units_Z   1
loop_
 _symmetry_equiv_pos_site_id
 _symmetry_equiv_pos_as_xyz
  1  'x, y, z'
loop_
 _atom_site_type_symbol
 _atom_site_label
 _atom_site_symmetry_multiplicity
 _atom_site_fract_x
 _atom_site_fract_y
 _atom_site_fract_z
 _atom_site_occupancy
  H  H0  1  0.02025600  0.80516200  0.36039000  1
  H  H1  1  0.22903300  0.73917600  0.47220900  1
  H  H2  1  0.24309200  0.80410100  0.59328500  1
  H  H3  1  0.50348000  0.80383900  0.71967900  1
  H  H4  1  0.38360900  0.05074800  0.94973500  1
  H  H5  1  0.72026400  0.95900600  0.91807900  1
  Sr  Sr6  1  0.18381300  0.90198900  0.87339800  1
  Nb  Nb7  1  0.80245900  0.06376600  0.56559100  1
  Sr  Sr8  1  0.30451000  0.45774600  0.75116500  1
  H  H9  1  0.65121100  0.35031100  0.11254100  1
