# generated using pymatgen
data_SrNb2H9
_symmetry_space_group_name_H-M   'P 1'
_cell_length_a   3.46091300
_cell_length_b   5.13084135
_cell_length_c   5.62037053
_cell_angle_alpha   80.20262189
_cell_angle_beta   88.95659584
_cell_angle_gamma   88.09680405
_symmetry_Int_Tables_number   1
_chemical_formula_structural   SrNb2H9
_chemical_formula_sum   'Sr1 Nb2 H9'
_cell_volume   98.28533880
_cell_formula_units_Z   1
loop_
 _symmetry_equiv_pos_site_id
 _symmetry_equiv_pos_as_xyz
  1  'x, y, z'
loop_
 _atom_site_type_symbol
 _atom_site_label
 _atom_site_symmetry_multiplicity
 _atom_site_fract_x
 _atom_site_fract_y
 _atom_site_fract_z
 _atom_site_occupancy
  H  H0  1  0.53243000  0.13251400  0.84303300  1
  H  H1  1  0.42210800  0.35382600  0.72889800  1
  H  H2  1  0.57675400  0.85779600  0.99021200  1
  Nb  Nb3  1  0.73126400  0.84815500  0.25880900  1
  Nb  Nb4  1  0.55758300  0.25977600  0.47779500  1
  H  H5  1  0.96494400  0.65884800  0.07278000  1
  H  H6  1  0.98407700  0.51422500  0.37180900  1
  H  H7  1  0.21187800  0.84770900  0.33133900  1
  H  H8  1  0.91632600  0.33857600  0.66193000  1
  H  H9  1  0.51935500  0.54445000  0.20111500  1
  H  H10  1  0.59449500  0.67021100  0.56390600  1
  Sr  Sr11  1  0.10399900  0.85239600  0.75447900  1
