# generated using pymatgen
data_SrNb2H7
_symmetry_space_group_name_H-M   'P 1'
_cell_length_a   3.48323700
_cell_length_b   7.23332653
_cell_length_c   8.13597399
_cell_angle_alpha   67.99740061
_cell_angle_beta   83.27544487
_cell_angle_gamma   86.68731627
_symmetry_Int_Tables_number   1
_chemical_formula_structural   SrNb2H7
_chemical_formula_sum   'Sr1 Nb2 H7'
_cell_volume   188.72999211
_cell_formula_units_Z   1
loop_
 _symmetry_equiv_pos_site_id
 _symmetry_equiv_pos_as_xyz
  1  'x, y, z'
loop_
 _atom_site_type_symbol
 _atom_site_label
 _atom_site_symmetry_multiplicity
 _atom_site_fract_x
 _atom_site_fract_y
 _atom_site_fract_z
 _atom_site_occupancy
  H  H0  1  0.75135000  0.22655500  0.44949700  1
  H  H1  1  0.55578100  0.50480700  0.25962700  1
  H  H2  1  0.88518600  0.73452600  0.45662200  1
  Nb  Nb3  1  0.70385500  0.77386300  0.61108100  1
  H  H4  1  0.84324200  0.50044200  0.75788100  1
  Nb  Nb5  1  0.95769800  0.55843000  0.92711300  1
  H  H6  1  0.25905400  0.87215900  0.86588200  1
  H  H7  1  0.37571500  0.90719500  0.92757000  1
  Sr  Sr8  1  0.98753400  0.82560500  0.15549200  1
  H  H9  1  0.49718800  0.97061300  0.22959300  1
