# generated using pymatgen
data_SrNbH6
_symmetry_space_group_name_H-M   'P 1'
_cell_length_a   3.14321900
_cell_length_b   4.79678341
_cell_length_c   5.78962402
_cell_angle_alpha   75.46291058
_cell_angle_beta   78.19201561
_cell_angle_gamma   75.77735761
_symmetry_Int_Tables_number   1
_chemical_formula_structural   SrNbH6
_chemical_formula_sum   'Sr1 Nb1 H6'
_cell_volume   80.95124194
_cell_formula_units_Z   1
loop_
 _symmetry_equiv_pos_site_id
 _symmetry_equiv_pos_as_xyz
  1  'x, y, z'
loop_
 _atom_site_type_symbol
 _atom_site_label
 _atom_site_symmetry_multiplicity
 _atom_site_fract_x
 _atom_site_fract_y
 _atom_site_fract_z
 _atom_site_occupancy
  H  H0  1  0.00560100  0.13635400  0.02542900  1
  H  H1  1  0.17508600  0.01720500  0.15988100  1
  Sr  Sr2  1  0.32762200  0.11330300  0.77662700  1
  H  H3  1  0.34359900  0.59610500  0.76302000  1
  H  H4  1  0.91318300  0.62580800  0.79713200  1
  Nb  Nb5  1  0.71684900  0.73056100  0.54821500  1
  H  H6  1  0.20521900  0.75075400  0.49585100  1
  H  H7  1  0.22298700  0.63251300  0.23182400  1
