# generated using pymatgen
data_Sr2NbH8
_symmetry_space_group_name_H-M   'P 1'
_cell_length_a   4.02051600
_cell_length_b   5.94470085
_cell_length_c   6.39010216
_cell_angle_alpha   66.48820996
_cell_angle_beta   82.42491904
_cell_angle_gamma   86.40840031
_symmetry_Int_Tables_number   1
_chemical_formula_structural   Sr2NbH8
_chemical_formula_sum   'Sr2 Nb1 H8'
_cell_volume   138.81781772
_cell_formula_units_Z   1
loop_
 _symmetry_equiv_pos_site_id
 _symmetry_equiv_pos_as_xyz
  1  'x, y, z'
loop_
 _atom_site_type_symbol
 _atom_site_label
 _atom_site_symmetry_multiplicity
 _atom_site_fract_x
 _atom_site_fract_y
 _atom_site_fract_z
 _atom_site_occupancy
  H  H0  1  0.46884400  0.48537900  0.41918300  1
  H  H1  1  0.81353700  0.37353000  0.59065600  1
  H  H2  1  0.68907000  0.84245300  0.40830500  1
  Sr  Sr3  1  0.89532100  0.85618400  0.60802900  1
  Nb  Nb4  1  0.58019100  0.19163700  0.33415300  1
  H  H5  1  0.70978900  0.48047800  0.08874800  1
  H  H6  1  0.44420500  0.11273300  0.66375300  1
  H  H7  1  0.06334200  0.25067400  0.35030900  1
  H  H8  1  0.68060500  0.09469000  0.06136600  1
  H  H9  1  0.27092200  0.62381200  0.80368800  1
  Sr  Sr10  1  0.20205800  0.78862400  0.09326500  1
