# generated using pymatgen
data_SrNbH13
_symmetry_space_group_name_H-M   'P 1'
_cell_length_a   4.69561400
_cell_length_b   5.30454478
_cell_length_c   5.34488392
_cell_angle_alpha   114.38901363
_cell_angle_beta   90.08740881
_cell_angle_gamma   91.38502953
_symmetry_Int_Tables_number   1
_chemical_formula_structural   SrNbH13
_chemical_formula_sum   'Sr1 Nb1 H13'
_cell_volume   121.20555122
_cell_formula_units_Z   1
loop_
 _symmetry_equiv_pos_site_id
 _symmetry_equiv_pos_as_xyz
  1  'x, y, z'
loop_
 _atom_site_type_symbol
 _atom_site_label
 _atom_site_symmetry_multiplicity
 _atom_site_fract_x
 _atom_site_fract_y
 _atom_site_fract_z
 _atom_site_occupancy
  H  H0  1  0.65952500  0.73310300  0.66666600  1
  H  H1  1  0.84047500  0.73310300  0.66666600  1
  Sr  Sr2  1  0.74964500  0.45821000  0.51448800  1
  H  H3  1  0.75000000  0.77694700  0.12034200  1
  H  H4  1  0.75000000  0.68579600  0.19855300  1
  H  H5  1  0.27320300  0.58051900  0.42678900  1
  H  H6  1  0.25000000  0.65660500  0.37717700  1
  H  H7  1  0.27617300  0.41419200  0.73336400  1
  H  H8  1  0.25000000  0.59832200  0.91252500  1
  Nb  Nb9  1  0.25143400  0.10088900  0.83343400  1
  H  H10  1  0.59018000  0.13844300  0.74120800  1
  H  H11  1  0.95211500  0.11305700  0.64946200  1
  H  H12  1  0.46834500  0.37275300  0.07562100  1
  H  H13  1  0.02708500  0.37620400  0.05528800  1
  H  H14  1  0.22006000  0.07692300  0.17932300  1
