# generated using pymatgen
data_SrNbH8
_symmetry_space_group_name_H-M   'P 1'
_cell_length_a   3.51631800
_cell_length_b   4.94752133
_cell_length_c   5.49063691
_cell_angle_alpha   99.76684445
_cell_angle_beta   97.09333481
_cell_angle_gamma   96.84300062
_symmetry_Int_Tables_number   1
_chemical_formula_structural   SrNbH8
_chemical_formula_sum   'Sr1 Nb1 H8'
_cell_volume   92.45248322
_cell_formula_units_Z   1
loop_
 _symmetry_equiv_pos_site_id
 _symmetry_equiv_pos_as_xyz
  1  'x, y, z'
loop_
 _atom_site_type_symbol
 _atom_site_label
 _atom_site_symmetry_multiplicity
 _atom_site_fract_x
 _atom_site_fract_y
 _atom_site_fract_z
 _atom_site_occupancy
  H  H0  1  0.35601800  0.49289500  0.21258400  1
  H  H1  1  0.51626100  0.62660900  0.48435300  1
  H  H2  1  0.30722900  0.29898700  0.95667100  1
  Nb  Nb3  1  0.82457500  0.32580000  0.18041000  1
  H  H4  1  0.42484800  0.15093500  0.18064700  1
  H  H5  1  0.99679300  0.04377500  0.26881900  1
  H  H6  1  0.81712900  0.67195700  0.22177700  1
  Sr  Sr7  1  0.12320400  0.94411100  0.59700900  1
  H  H8  1  0.82833800  0.32160900  0.70902000  1
  H  H9  1  0.61022200  0.90719500  0.88388200  1
