# generated using pymatgen
data_Sr2NbH12
_symmetry_space_group_name_H-M   'P 1'
_cell_length_a   4.82909100
_cell_length_b   5.53168638
_cell_length_c   6.13116015
_cell_angle_alpha   89.04736696
_cell_angle_beta   81.17454894
_cell_angle_gamma   89.84834177
_symmetry_Int_Tables_number   1
_chemical_formula_structural   Sr2NbH12
_chemical_formula_sum   'Sr2 Nb1 H12'
_cell_volume   161.82029141
_cell_formula_units_Z   1
loop_
 _symmetry_equiv_pos_site_id
 _symmetry_equiv_pos_as_xyz
  1  'x, y, z'
loop_
 _atom_site_type_symbol
 _atom_site_label
 _atom_site_symmetry_multiplicity
 _atom_site_fract_x
 _atom_site_fract_y
 _atom_site_fract_z
 _atom_site_occupancy
  H  H0  1  0.94144000  0.99033600  0.41294200  1
  H  H1  1  0.16637700  0.89299300  0.21871600  1
  H  H2  1  0.94144000  0.49033600  0.41294200  1
  H  H3  1  0.77882900  0.40063100  0.40154400  1
  H  H4  1  0.99605000  0.24059100  0.62361500  1
  H  H5  1  0.00755900  0.44874800  0.64435000  1
  H  H6  1  0.99605000  0.74059100  0.62361500  1
  Nb  Nb7  1  0.64847500  0.39433200  0.70575600  1
  H  H8  1  0.74391400  0.45901100  0.96870900  1
  H  H9  1  0.42346100  0.61551100  0.59638300  1
  H  H10  1  0.32857300  0.46445200  0.91842200  1
  H  H11  1  0.44681400  0.11968700  0.60566300  1
  H  H12  1  0.53819700  0.04419000  0.90225000  1
  Sr  Sr13  1  0.33394700  0.38625200  0.29343500  1
  Sr  Sr14  1  0.06869700  0.93352700  0.88669900  1
