# generated using pymatgen
data_Sr2NbH9
_symmetry_space_group_name_H-M   'P 1'
_cell_length_a   3.93559300
_cell_length_b   4.87171807
_cell_length_c   7.64665318
_cell_angle_alpha   83.61228679
_cell_angle_beta   83.44019852
_cell_angle_gamma   86.46848349
_symmetry_Int_Tables_number   1
_chemical_formula_structural   Sr2NbH9
_chemical_formula_sum   'Sr2 Nb1 H9'
_cell_volume   144.56841987
_cell_formula_units_Z   1
loop_
 _symmetry_equiv_pos_site_id
 _symmetry_equiv_pos_as_xyz
  1  'x, y, z'
loop_
 _atom_site_type_symbol
 _atom_site_label
 _atom_site_symmetry_multiplicity
 _atom_site_fract_x
 _atom_site_fract_y
 _atom_site_fract_z
 _atom_site_occupancy
  H  H0  1  0.75088200  0.40022700  0.78306900  1
  H  H1  1  0.05800100  0.34163500  0.89528900  1
  H  H2  1  0.39798500  0.33605300  0.48627600  1
  H  H3  1  0.37231100  0.43714100  0.61176600  1
  H  H4  1  0.53744700  0.17852200  0.21513700  1
  H  H5  1  0.37135900  0.43574200  0.17825500  1
  Nb  Nb6  1  0.50361200  0.64903500  0.28423200  1
  H  H7  1  0.40270500  0.80354700  0.47442100  1
  H  H8  1  0.64357400  0.76583700  0.03918000  1
  H  H9  1  0.98530700  0.62784500  0.31795800  1
  Sr  Sr10  1  0.24078600  0.74051700  0.89537600  1
  Sr  Sr11  1  0.83799800  0.98628000  0.60637700  1
