# generated using pymatgen
data_SrNbH6
_symmetry_space_group_name_H-M   'P 1'
_cell_length_a   4.91565600
_cell_length_b   5.69402366
_cell_length_c   6.32021296
_cell_angle_alpha   68.94884927
_cell_angle_beta   71.50477970
_cell_angle_gamma   84.58501032
_symmetry_Int_Tables_number   1
_chemical_formula_structural   SrNbH6
_chemical_formula_sum   'Sr1 Nb1 H6'
_cell_volume   156.52999970
_cell_formula_units_Z   1
loop_
 _symmetry_equiv_pos_site_id
 _symmetry_equiv_pos_as_xyz
  1  'x, y, z'
loop_
 _atom_site_type_symbol
 _atom_site_label
 _atom_site_symmetry_multiplicity
 _atom_site_fract_x
 _atom_site_fract_y
 _atom_site_fract_z
 _atom_site_occupancy
  H  H0  1  0.20989500  0.30338200  0.67176800  1
  H  H1  1  0.30984600  0.19183400  0.85423300  1
  H  H2  1  0.27132700  0.88207000  0.44421700  1
  Nb  Nb3  1  0.24336500  0.16581900  0.25767000  1
  H  H4  1  0.04793100  0.97360900  0.68187900  1
  H  H5  1  0.68063200  0.00465300  0.82246000  1
  H  H6  1  0.71057600  0.34339100  0.08618800  1
  Sr  Sr7  1  0.86986000  0.75157800  0.36917700  1
