# generated using pymatgen
data_Sr5NbH19
_symmetry_space_group_name_H-M   'P 1'
_cell_length_a   6.55231100
_cell_length_b   6.96252231
_cell_length_c   8.03534871
_cell_angle_alpha   106.51048040
_cell_angle_beta   108.93544629
_cell_angle_gamma   67.07852445
_symmetry_Int_Tables_number   1
_chemical_formula_structural   Sr5NbH19
_chemical_formula_sum   'Sr5 Nb1 H19'
_cell_volume   314.07835029
_cell_formula_units_Z   1
loop_
 _symmetry_equiv_pos_site_id
 _symmetry_equiv_pos_as_xyz
  1  'x, y, z'
loop_
 _atom_site_type_symbol
 _atom_site_label
 _atom_site_symmetry_multiplicity
 _atom_site_fract_x
 _atom_site_fract_y
 _atom_site_fract_z
 _atom_site_occupancy
  Sr  Sr0  1  0.46598100  0.49159100  0.46223400  1
  H  H1  1  0.33543400  0.35186000  0.56539200  1
  H  H2  1  0.58854600  0.63668000  0.35497800  1
  H  H3  1  0.58529400  0.43200500  0.95606300  1
  H  H4  1  0.84531300  0.34835600  0.10076400  1
  H  H5  1  0.77241400  0.11451900  0.86645200  1
  H  H6  1  0.00100900  0.29820700  0.81739400  1
  H  H7  1  0.99738200  0.15953900  0.72540700  1
  Sr  Sr8  1  0.17327900  0.03976600  0.95490100  1
  H  H9  1  0.33341200  0.88992300  0.10345400  1
  Sr  Sr10  1  0.17327900  0.53976600  0.95490100  1
  H  H11  1  0.36241000  0.35455300  0.10695600  1
  H  H12  1  0.58529400  0.93200500  0.95606300  1
  H  H13  1  0.80003500  0.01795200  0.18012000  1
  Nb  Nb14  1  0.95050200  0.00481800  0.45050000  1
  H  H15  1  0.10298300  0.05922900  0.36344900  1
  H  H16  1  0.92992100  0.86357300  0.58211600  1
  H  H17  1  0.65654700  0.09186900  0.39608400  1
  H  H18  1  0.81744600  0.27519400  0.43736300  1
  H  H19  1  0.24393000  0.87319700  0.59174100  1
  H  H20  1  0.00100900  0.79820700  0.81739400  1
  H  H21  1  0.02380200  0.72990700  0.29577300  1
  Sr  Sr22  1  0.46649800  0.98881800  0.46649600  1
  Sr  Sr23  1  0.96385700  0.49673200  0.45154100  1
  H  H24  1  0.77241400  0.61451900  0.86645200  1
