# generated using pymatgen
data_SrNb2H7
_symmetry_space_group_name_H-M   'P 1'
_cell_length_a   3.33693000
_cell_length_b   4.89254137
_cell_length_c   5.36565545
_cell_angle_alpha   91.72306752
_cell_angle_beta   97.58215810
_cell_angle_gamma   90.66786103
_symmetry_Int_Tables_number   1
_chemical_formula_structural   SrNb2H7
_chemical_formula_sum   'Sr1 Nb2 H7'
_cell_volume   86.78408595
_cell_formula_units_Z   1
loop_
 _symmetry_equiv_pos_site_id
 _symmetry_equiv_pos_as_xyz
  1  'x, y, z'
loop_
 _atom_site_type_symbol
 _atom_site_label
 _atom_site_symmetry_multiplicity
 _atom_site_fract_x
 _atom_site_fract_y
 _atom_site_fract_z
 _atom_site_occupancy
  H  H0  1  0.26445700  0.53101600  0.25790300  1
  H  H1  1  0.80865600  0.37353000  0.37084400  1
  Nb  Nb2  1  0.04140000  0.18940700  0.03047500  1
  H  H3  1  0.23484300  0.10360900  0.28480000  1
  H  H4  1  0.22903700  0.38977800  0.74459600  1
  H  H5  1  0.14027100  0.08060400  0.66818800  1
  H  H6  1  0.73024600  0.93691400  0.74505700  1
  H  H7  1  0.23013900  0.73908900  0.74476400  1
  Nb  Nb8  1  0.73077200  0.58637800  0.74430200  1
  Sr  Sr9  1  0.72687100  0.85618400  0.35347100  1
