# generated using pymatgen
data_Sr2(NbH5)3
_symmetry_space_group_name_H-M   'P 1'
_cell_length_a   4.61851900
_cell_length_b   6.05589639
_cell_length_c   6.59859418
_cell_angle_alpha   89.81896230
_cell_angle_beta   89.97290027
_cell_angle_gamma   76.55390722
_symmetry_Int_Tables_number   1
_chemical_formula_structural   Sr2(NbH5)3
_chemical_formula_sum   'Sr2 Nb3 H15'
_cell_volume   179.49808434
_cell_formula_units_Z   1
loop_
 _symmetry_equiv_pos_site_id
 _symmetry_equiv_pos_as_xyz
  1  'x, y, z'
loop_
 _atom_site_type_symbol
 _atom_site_label
 _atom_site_symmetry_multiplicity
 _atom_site_fract_x
 _atom_site_fract_y
 _atom_site_fract_z
 _atom_site_occupancy
  Nb  Nb0  1  0.39476700  0.79848800  0.74261600  1
  H  H1  1  0.74951100  0.85116300  0.74142300  1
  H  H2  1  0.31297300  0.11695500  0.73916900  1
  H  H3  1  0.02336700  0.00051800  0.89528900  1
  H  H4  1  0.09735400  0.93794200  0.94510000  1
  Nb  Nb5  1  0.95034200  0.67917400  0.99589900  1
  H  H6  1  0.55330700  0.76004400  0.01562500  1
  H  H7  1  0.93158300  0.38285000  0.02698900  1
  H  H8  1  0.34216400  0.55062000  0.92802300  1
  Nb  Nb9  1  0.95116700  0.67969300  0.48872300  1
  H  H10  1  0.55575200  0.75491600  0.46986300  1
  H  H11  1  0.94511200  0.38053000  0.46155100  1
  H  H12  1  0.34176400  0.55272300  0.55940700  1
  H  H13  1  0.09796900  0.93766400  0.53767200  1
  H  H14  1  0.77702900  0.60532600  0.24380100  1
  H  H15  1  0.19298700  0.56329000  0.24293200  1
  H  H16  1  0.03070000  0.49478600  0.74390600  1
  H  H17  1  0.84704100  0.91984200  0.24160900  1
  Sr  Sr18  1  0.73715300  0.24524800  0.74144800  1
  Sr  Sr19  1  0.28133900  0.10385400  0.24066800  1
