# generated using pymatgen
data_SrNbH8
_symmetry_space_group_name_H-M   'P 1'
_cell_length_a   3.93927500
_cell_length_b   4.84443926
_cell_length_c   4.95620174
_cell_angle_alpha   90.09045657
_cell_angle_beta   96.62028809
_cell_angle_gamma   99.23563758
_symmetry_Int_Tables_number   1
_chemical_formula_structural   SrNbH8
_chemical_formula_sum   'Sr1 Nb1 H8'
_cell_volume   92.71401114
_cell_formula_units_Z   1
loop_
 _symmetry_equiv_pos_site_id
 _symmetry_equiv_pos_as_xyz
  1  'x, y, z'
loop_
 _atom_site_type_symbol
 _atom_site_label
 _atom_site_symmetry_multiplicity
 _atom_site_fract_x
 _atom_site_fract_y
 _atom_site_fract_z
 _atom_site_occupancy
  H  H0  1  0.04983600  0.03200400  0.15254800  1
  H  H1  1  0.04834800  0.95016200  0.30696900  1
  H  H2  1  0.51786400  0.02264400  0.60777800  1
  Nb  Nb3  1  0.52512700  0.82864300  0.49830700  1
  H  H4  1  0.53955000  0.60864900  0.29348400  1
  H  H5  1  0.51857600  0.01001200  0.06447900  1
  H  H6  1  0.53243000  0.79180500  0.84303300  1
  H  H7  1  0.56760200  0.47089100  0.71243600  1
  H  H8  1  0.05358800  0.64597500  0.61541800  1
  Sr  Sr9  1  0.04616800  0.45533600  0.07509400  1
