# generated using pymatgen
data_Sr2NbH9
_symmetry_space_group_name_H-M   'P 1'
_cell_length_a   4.11444600
_cell_length_b   5.53409968
_cell_length_c   6.65583257
_cell_angle_alpha   72.72521950
_cell_angle_beta   88.37611745
_cell_angle_gamma   89.78303730
_symmetry_Int_Tables_number   1
_chemical_formula_structural   Sr2NbH9
_chemical_formula_sum   'Sr2 Nb1 H9'
_cell_volume   144.65559890
_cell_formula_units_Z   1
loop_
 _symmetry_equiv_pos_site_id
 _symmetry_equiv_pos_as_xyz
  1  'x, y, z'
loop_
 _atom_site_type_symbol
 _atom_site_label
 _atom_site_symmetry_multiplicity
 _atom_site_fract_x
 _atom_site_fract_y
 _atom_site_fract_z
 _atom_site_occupancy
  Sr  Sr0  1  0.60566800  0.89795200  0.29424400  1
  H  H1  1  0.38448900  0.12296500  0.40361700  1
  H  H2  1  0.88031300  0.09961200  0.39433700  1
  H  H3  1  0.95581000  0.00822900  0.09775000  1
  H  H4  1  0.55125200  0.53886700  0.35565000  1
  H  H5  1  0.59936900  0.76759700  0.59845600  1
  H  H6  1  0.53554800  0.21785300  0.08157800  1
  H  H7  1  0.02142800  0.74116800  0.38675000  1
  H  H8  1  0.54098900  0.80251200  0.03129100  1
  Sr  Sr9  1  0.61374800  0.21247900  0.70656500  1
  H  H10  1  0.10700700  0.38004900  0.78128400  1
  Nb  Nb11  1  0.06647300  0.47772900  0.11330100  1
