# generated using pymatgen
data_SrNbH6
_symmetry_space_group_name_H-M   'P 1'
_cell_length_a   3.26189800
_cell_length_b   4.90123982
_cell_length_c   10.28819455
_cell_angle_alpha   78.16314037
_cell_angle_beta   88.25300405
_cell_angle_gamma   76.53132445
_symmetry_Int_Tables_number   1
_chemical_formula_structural   SrNbH6
_chemical_formula_sum   'Sr1 Nb1 H6'
_cell_volume   156.53003326
_cell_formula_units_Z   1
loop_
 _symmetry_equiv_pos_site_id
 _symmetry_equiv_pos_as_xyz
  1  'x, y, z'
loop_
 _atom_site_type_symbol
 _atom_site_label
 _atom_site_symmetry_multiplicity
 _atom_site_fract_x
 _atom_site_fract_y
 _atom_site_fract_z
 _atom_site_occupancy
  H  H0  1  0.25741600  0.58627400  0.02602100  1
  Nb  Nb1  1  0.93823300  0.50543400  0.00433500  1
  H  H2  1  0.54639900  0.22629900  0.27034800  1
  Sr  Sr3  1  0.91530900  0.22951200  0.20423400  1
  H  H4  1  0.28184200  0.04280900  0.11660100  1
  H  H5  1  0.82283700  0.97211400  0.02513100  1
  H  H6  1  0.00868000  0.84511000  0.54683600  1
  H  H7  1  0.78002700  0.28772500  0.64612900  1
