# generated using pymatgen
data_SrNbH8
_symmetry_space_group_name_H-M   'P 1'
_cell_length_a   3.32285400
_cell_length_b   5.18838766
_cell_length_c   5.65881565
_cell_angle_alpha   73.71710715
_cell_angle_beta   82.20190498
_cell_angle_gamma   89.87851499
_symmetry_Int_Tables_number   1
_chemical_formula_structural   SrNbH8
_chemical_formula_sum   'Sr1 Nb1 H8'
_cell_volume   92.71400230
_cell_formula_units_Z   1
loop_
 _symmetry_equiv_pos_site_id
 _symmetry_equiv_pos_as_xyz
  1  'x, y, z'
loop_
 _atom_site_type_symbol
 _atom_site_label
 _atom_site_symmetry_multiplicity
 _atom_site_fract_x
 _atom_site_fract_y
 _atom_site_fract_z
 _atom_site_occupancy
  H  H0  1  0.47515100  0.70155800  0.93620100  1
  Nb  Nb1  1  0.73077200  0.57808800  0.90625700  1
  H  H2  1  0.96355800  0.67202000  0.74845500  1
  H  H3  1  0.87819500  0.56791000  0.59615700  1
  H  H4  1  0.95400100  0.74143200  0.32687000  1
  H  H5  1  0.23013900  0.42537700  0.90579400  1
  H  H6  1  0.73024600  0.22755300  0.90550100  1
  H  H7  1  0.58397700  0.25796700  0.21511100  1
  H  H8  1  0.96424800  0.89179700  0.96684600  1
  Sr  Sr9  1  0.38187000  0.26415800  0.59322700  1
