# generated using pymatgen
data_Sr2NbH7
_symmetry_space_group_name_H-M   'P 1'
_cell_length_a   3.87475200
_cell_length_b   5.58710586
_cell_length_c   6.26756937
_cell_angle_alpha   63.54204724
_cell_angle_beta   75.67909764
_cell_angle_gamma   89.87707320
_symmetry_Int_Tables_number   1
_chemical_formula_structural   Sr2NbH7
_chemical_formula_sum   'Sr2 Nb1 H7'
_cell_volume   116.78150971
_cell_formula_units_Z   1
loop_
 _symmetry_equiv_pos_site_id
 _symmetry_equiv_pos_as_xyz
  1  'x, y, z'
loop_
 _atom_site_type_symbol
 _atom_site_label
 _atom_site_symmetry_multiplicity
 _atom_site_fract_x
 _atom_site_fract_y
 _atom_site_fract_z
 _atom_site_occupancy
  Sr  Sr0  1  0.21912800  0.33984800  0.95977700  1
  H  H1  1  0.81374700  0.52487800  0.98261900  1
  H  H2  1  0.80836900  0.13579000  0.98257800  1
  H  H3  1  0.05131900  0.48746700  0.66830800  1
  H  H4  1  0.44861700  0.22399100  0.71120200  1
  H  H5  1  0.45062600  0.70361700  0.71203200  1
  H  H6  1  0.16360300  0.42387700  0.23913400  1
  H  H7  1  0.16165700  0.97556900  0.23887000  1
  Nb  Nb8  1  0.97434700  0.99638300  0.64669700  1
  Sr  Sr9  1  0.63796700  0.66497100  0.30996300  1
