# generated using pymatgen
data_Sr2NbH10
_symmetry_space_group_name_H-M   'P 1'
_cell_length_a   4.67375200
_cell_length_b   5.54210763
_cell_length_c   6.25585625
_cell_angle_alpha   105.25685971
_cell_angle_beta   104.59381352
_cell_angle_gamma   90.98359987
_symmetry_Int_Tables_number   1
_chemical_formula_structural   Sr2NbH10
_chemical_formula_sum   'Sr2 Nb1 H10'
_cell_volume   150.68125248
_cell_formula_units_Z   1
loop_
 _symmetry_equiv_pos_site_id
 _symmetry_equiv_pos_as_xyz
  1  'x, y, z'
loop_
 _atom_site_type_symbol
 _atom_site_label
 _atom_site_symmetry_multiplicity
 _atom_site_fract_x
 _atom_site_fract_y
 _atom_site_fract_z
 _atom_site_occupancy
  H  H0  1  0.28947800  0.07863700  0.83170700  1
  H  H1  1  0.26541100  0.23626100  0.99701000  1
  H  H2  1  0.16685100  0.43304800  0.10515800  1
  Sr  Sr3  1  0.21889100  0.59913600  0.80658500  1
  H  H4  1  0.27930400  0.87564800  0.99867300  1
  Nb  Nb5  1  0.48188200  0.34594300  0.29330800  1
  H  H6  1  0.79247800  0.35273200  0.28383600  1
  H  H7  1  0.21184000  0.11917300  0.27047000  1
  H  H8  1  0.60394600  0.63878500  0.28548400  1
  H  H9  1  0.59897700  0.04279000  0.26782000  1
  H  H10  1  0.45325100  0.64282600  0.59118900  1
  H  H11  1  0.76346800  0.47543700  0.72295600  1
  Sr  Sr12  1  0.71890200  0.08172100  0.77430700  1
