# generated using pymatgen
data_SrNbH12
_symmetry_space_group_name_H-M   'P 1'
_cell_length_a   4.27891900
_cell_length_b   4.36589586
_cell_length_c   6.54259682
_cell_angle_alpha   96.78884709
_cell_angle_beta   96.67330473
_cell_angle_gamma   103.45358843
_symmetry_Int_Tables_number   1
_chemical_formula_structural   SrNbH12
_chemical_formula_sum   'Sr1 Nb1 H12'
_cell_volume   116.72263695
_cell_formula_units_Z   1
loop_
 _symmetry_equiv_pos_site_id
 _symmetry_equiv_pos_as_xyz
  1  'x, y, z'
loop_
 _atom_site_type_symbol
 _atom_site_label
 _atom_site_symmetry_multiplicity
 _atom_site_fract_x
 _atom_site_fract_y
 _atom_site_fract_z
 _atom_site_occupancy
  H  H0  1  0.94252400  0.21464200  0.03927100  1
  H  H1  1  0.64350700  0.35328900  0.97997500  1
  H  H2  1  0.23537000  0.06168600  0.31009300  1
  H  H3  1  0.00162500  0.79332700  0.31795800  1
  Sr  Sr4  1  0.63961500  0.73953400  0.24195600  1
  H  H5  1  0.21484900  0.66222200  0.52867400  1
  H  H6  1  0.28929200  0.34110400  0.70382400  1
  H  H7  1  0.19740800  0.23137000  0.82388600  1
  Nb  Nb8  1  0.92933500  0.39403600  0.74317800  1
  H  H9  1  0.87599500  0.72325700  0.75012300  1
  H  H10  1  0.93843400  0.21785700  0.43627600  1
  H  H11  1  0.62763700  0.35711400  0.51980600  1
  H  H12  1  0.54492600  0.04742700  0.73253500  1
  H  H13  1  0.20472900  0.66719600  0.97439000  1
