# generated using pymatgen
data_Sr2NbH8
_symmetry_space_group_name_H-M   'P 1'
_cell_length_a   3.95541000
_cell_length_b   5.84573347
_cell_length_c   6.94044520
_cell_angle_alpha   114.87694683
_cell_angle_beta   105.85936911
_cell_angle_gamma   90.02286643
_symmetry_Int_Tables_number   1
_chemical_formula_structural   Sr2NbH8
_chemical_formula_sum   'Sr2 Nb1 H8'
_cell_volume   138.81781278
_cell_formula_units_Z   1
loop_
 _symmetry_equiv_pos_site_id
 _symmetry_equiv_pos_as_xyz
  1  'x, y, z'
loop_
 _atom_site_type_symbol
 _atom_site_label
 _atom_site_symmetry_multiplicity
 _atom_site_fract_x
 _atom_site_fract_y
 _atom_site_fract_z
 _atom_site_occupancy
  H  H0  1  0.76986100  0.73908900  0.90579400  1
  H  H1  1  0.79543800  0.70736600  0.67724800  1
  Sr  Sr2  1  0.61813000  0.90030900  0.59322700  1
  H  H3  1  0.12180500  0.59655700  0.59615700  1
  H  H4  1  0.77096300  0.38977800  0.90596200  1
  Nb  Nb5  1  0.26922800  0.58637800  0.90625700  1
  H  H6  1  0.26975400  0.93691400  0.90550100  1
  H  H7  1  0.41602300  0.90650000  0.21511100  1
  H  H8  1  0.13599000  0.21055500  0.62923000  1
  H  H9  1  0.40358600  0.48789300  0.18361500  1
  Sr  Sr10  1  0.92046900  0.21287900  0.21837700  1
