# generated using pymatgen
data_SrNbH7
_symmetry_space_group_name_H-M   'P 1'
_cell_length_a   3.78732600
_cell_length_b   4.74126619
_cell_length_c   5.04423080
_cell_angle_alpha   86.18734366
_cell_angle_beta   82.94625708
_cell_angle_gamma   75.74903103
_symmetry_Int_Tables_number   1
_chemical_formula_structural   SrNbH7
_chemical_formula_sum   'Sr1 Nb1 H7'
_cell_volume   87.06407582
_cell_formula_units_Z   1
loop_
 _symmetry_equiv_pos_site_id
 _symmetry_equiv_pos_as_xyz
  1  'x, y, z'
loop_
 _atom_site_type_symbol
 _atom_site_label
 _atom_site_symmetry_multiplicity
 _atom_site_fract_x
 _atom_site_fract_y
 _atom_site_fract_z
 _atom_site_occupancy
  H  H0  1  0.73183800  0.89952400  0.25448700  1
  H  H1  1  0.74834600  0.58104800  0.29825300  1
  Nb  Nb2  1  0.27678800  0.74056800  0.25378900  1
  H  H3  1  0.30147800  0.01755500  0.37507800  1
  H  H4  1  0.26291000  0.41759100  0.31368700  1
  H  H5  1  0.14323800  0.00096600  0.03810500  1
  H  H6  1  0.41752800  0.66488000  0.55496100  1
  Sr  Sr7  1  0.66549600  0.28539200  0.08495100  1
  H  H8  1  0.95165200  0.40102300  0.63634800  1
