# generated using pymatgen
data_Sr(NbH4)2
_symmetry_space_group_name_H-M   'P 1'
_cell_length_a   3.31933400
_cell_length_b   4.37066301
_cell_length_c   6.49621771
_cell_angle_alpha   98.06544618
_cell_angle_beta   96.42023180
_cell_angle_gamma   90.00297578
_symmetry_Int_Tables_number   1
_chemical_formula_structural   Sr(NbH4)2
_chemical_formula_sum   'Sr1 Nb2 H8'
_cell_volume   92.71580519
_cell_formula_units_Z   1
loop_
 _symmetry_equiv_pos_site_id
 _symmetry_equiv_pos_as_xyz
  1  'x, y, z'
loop_
 _atom_site_type_symbol
 _atom_site_label
 _atom_site_symmetry_multiplicity
 _atom_site_fract_x
 _atom_site_fract_y
 _atom_site_fract_z
 _atom_site_occupancy
  H  H0  1  0.25995300  0.01697400  0.04249100  1
  H  H1  1  0.20880100  0.73167400  0.90566400  1
  H  H2  1  0.65664200  0.14517200  0.79371500  1
  Nb  Nb3  1  0.70003000  0.92346400  0.90561500  1
  Nb  Nb4  1  0.51668000  0.26197400  0.54866400  1
  H  H5  1  0.41577200  0.10746200  0.35847400  1
  H  H6  1  0.71055400  0.55275200  0.62781200  1
  H  H7  1  0.70021100  0.89227600  0.56281800  1
  H  H8  1  0.99837500  0.28316500  0.51493700  1
  H  H9  1  0.70229900  0.82651500  0.18047300  1
  Sr  Sr10  1  0.20050900  0.56812100  0.24396500  1
