# generated using pymatgen
data_SrNbH13
_symmetry_space_group_name_H-M   'P 1'
_cell_length_a   5.18311600
_cell_length_b   5.30576610
_cell_length_c   5.39217304
_cell_angle_alpha   73.10960839
_cell_angle_beta   61.51698162
_cell_angle_gamma   73.09208646
_symmetry_Int_Tables_number   1
_chemical_formula_structural   SrNbH13
_chemical_formula_sum   'Sr1 Nb1 H13'
_cell_volume   122.65437528
_cell_formula_units_Z   1
loop_
 _symmetry_equiv_pos_site_id
 _symmetry_equiv_pos_as_xyz
  1  'x, y, z'
loop_
 _atom_site_type_symbol
 _atom_site_label
 _atom_site_symmetry_multiplicity
 _atom_site_fract_x
 _atom_site_fract_y
 _atom_site_fract_z
 _atom_site_occupancy
  Nb  Nb0  1  0.63134600  0.19497700  0.05734200  1
  H  H1  1  0.50924800  0.00768100  0.12831900  1
  H  H2  1  0.85179700  0.03275600  0.94700900  1
  H  H3  1  0.19313300  0.53272500  0.62909500  1
  H  H4  1  0.96137700  0.45481100  0.80543700  1
  H  H5  1  0.74672300  0.60930900  0.14269200  1
  H  H6  1  0.56333700  0.73573500  0.27683800  1
  H  H7  1  0.46392400  0.69315100  0.15908300  1
  H  H8  1  0.22461800  0.70590500  0.37766400  1
  H  H9  1  0.30503700  0.45791200  0.27883500  1
  H  H10  1  0.02970000  0.35744700  0.54903900  1
  H  H11  1  0.31340100  0.52477100  0.97391900  1
  Sr  Sr12  1  0.84422400  0.62918600  0.41345000  1
  H  H13  1  0.20355500  0.00768700  0.62568400  1
  H  H14  1  0.66807300  0.15234300  0.57556900  1
