# generated using pymatgen
data_SrNb2H7
_symmetry_space_group_name_H-M   'P 1'
_cell_length_a   5.19334200
_cell_length_b   5.22206348
_cell_length_c   7.09603792
_cell_angle_alpha   88.85825125
_cell_angle_beta   81.52243556
_cell_angle_gamma   82.53901957
_symmetry_Int_Tables_number   1
_chemical_formula_structural   SrNb2H7
_chemical_formula_sum   'Sr1 Nb2 H7'
_cell_volume   188.72998275
_cell_formula_units_Z   1
loop_
 _symmetry_equiv_pos_site_id
 _symmetry_equiv_pos_as_xyz
  1  'x, y, z'
loop_
 _atom_site_type_symbol
 _atom_site_label
 _atom_site_symmetry_multiplicity
 _atom_site_fract_x
 _atom_site_fract_y
 _atom_site_fract_z
 _atom_site_occupancy
  H  H0  1  0.79181700  0.85675500  0.77172100  1
  H  H1  1  0.49044800  0.76769300  0.78568000  1
  H  H2  1  0.64189900  0.41693400  0.75239900  1
  H  H3  1  0.19371200  0.81872100  0.01484100  1
  H  H4  1  0.56352200  0.10760500  0.09451000  1
  H  H5  1  0.69224700  0.23854800  0.17713600  1
  Sr  Sr6  1  0.72092800  0.44159200  0.35032200  1
  H  H7  1  0.27138800  0.15570300  0.27633200  1
  Nb  Nb8  1  0.90568300  0.84494600  0.40028400  1
  Nb  Nb9  1  0.03738200  0.13594100  0.57705800  1
