# generated using pymatgen
data_SrNbH10
_symmetry_space_group_name_H-M   'P 1'
_cell_length_a   3.51613000
_cell_length_b   4.47574988
_cell_length_c   6.70426193
_cell_angle_alpha   92.25111219
_cell_angle_beta   95.87026419
_cell_angle_gamma   90.68715620
_symmetry_Int_Tables_number   1
_chemical_formula_structural   SrNbH10
_chemical_formula_sum   'Sr1 Nb1 H10'
_cell_volume   104.85922851
_cell_formula_units_Z   1
loop_
 _symmetry_equiv_pos_site_id
 _symmetry_equiv_pos_as_xyz
  1  'x, y, z'
loop_
 _atom_site_type_symbol
 _atom_site_label
 _atom_site_symmetry_multiplicity
 _atom_site_fract_x
 _atom_site_fract_y
 _atom_site_fract_z
 _atom_site_occupancy
  H  H0  1  0.33402700  0.61189100  0.01127500  1
  H  H1  1  0.32142600  0.96580600  0.95902300  1
  H  H2  1  0.65664200  0.32536300  0.96082000  1
  H  H3  1  0.28156400  0.83817500  0.39517900  1
  H  H4  1  0.48856800  0.89492600  0.45861000  1
  Sr  Sr5  1  0.85106600  0.10492000  0.39362300  1
  H  H6  1  0.41577200  0.28765300  0.52557900  1
  H  H7  1  0.32857900  0.40176800  0.35530600  1
  H  H8  1  0.25995300  0.19716400  0.20959600  1
  H  H9  1  0.83096500  0.84959100  0.70143300  1
  H  H10  1  0.82792000  0.45932300  0.65860900  1
  Nb  Nb11  1  0.35577400  0.64669300  0.68611900  1
