# generated using pymatgen
data_Sr(NbH4)2
_symmetry_space_group_name_H-M   'P 1'
_cell_length_a   3.89065100
_cell_length_b   4.65671539
_cell_length_c   5.40183550
_cell_angle_alpha   78.30101548
_cell_angle_beta   87.59415472
_cell_angle_gamma   75.35116161
_symmetry_Int_Tables_number   1
_chemical_formula_structural   Sr(NbH4)2
_chemical_formula_sum   'Sr1 Nb2 H8'
_cell_volume   92.71580409
_cell_formula_units_Z   1
loop_
 _symmetry_equiv_pos_site_id
 _symmetry_equiv_pos_as_xyz
  1  'x, y, z'
loop_
 _atom_site_type_symbol
 _atom_site_label
 _atom_site_symmetry_multiplicity
 _atom_site_fract_x
 _atom_site_fract_y
 _atom_site_fract_z
 _atom_site_occupancy
  H  H0  1  0.55565200  0.22983100  0.55986500  1
  H  H1  1  0.81374700  0.01551700  0.62549700  1
  Nb  Nb2  1  0.21912800  0.20054600  0.64833800  1
  H  H3  1  0.47370300  0.90298300  0.36651400  1
  H  H4  1  0.16360300  0.11651700  0.36898100  1
  Nb  Nb5  1  0.39283900  0.31266900  0.30937300  1
  H  H6  1  0.34645800  0.60075600  0.09662800  1
  H  H7  1  0.92051500  0.44744100  0.38091200  1
  H  H8  1  0.10172000  0.70667300  0.55152400  1
  H  H9  1  0.05131900  0.05292800  0.93980800  1
  Sr  Sr10  1  0.94772400  0.52328300  0.92405100  1
