# generated using pymatgen
data_SrNb2H7
_symmetry_space_group_name_H-M   'P 1'
_cell_length_a   3.38473100
_cell_length_b   3.39170847
_cell_length_c   7.88097953
_cell_angle_alpha   101.29788312
_cell_angle_beta   101.68260132
_cell_angle_gamma   90.34774241
_symmetry_Int_Tables_number   1
_chemical_formula_structural   SrNb2H7
_chemical_formula_sum   'Sr1 Nb2 H7'
_cell_volume   86.78408699
_cell_formula_units_Z   1
loop_
 _symmetry_equiv_pos_site_id
 _symmetry_equiv_pos_as_xyz
  1  'x, y, z'
loop_
 _atom_site_type_symbol
 _atom_site_label
 _atom_site_symmetry_multiplicity
 _atom_site_fract_x
 _atom_site_fract_y
 _atom_site_fract_z
 _atom_site_occupancy
  H  H0  1  0.56008800  0.75022000  0.32158900  1
  H  H1  1  0.08612900  0.65864800  0.15258200  1
  H  H2  1  0.28598600  0.50286300  0.53149000  1
  Nb  Nb3  1  0.37380000  0.00348300  0.67906500  1
  Sr  Sr4  1  0.20254300  0.22734800  0.29951600  1
  H  H5  1  0.82496500  0.86151000  0.56574100  1
  H  H6  1  0.87331100  0.41657500  0.68309900  1
  H  H7  1  0.62532700  0.15964100  0.15502500  1
  H  H8  1  0.95146300  0.99763600  0.83328500  1
  Nb  Nb9  1  0.49255800  0.54873800  0.92017900  1
