# generated using pymatgen
data_SrNb6H17
_symmetry_space_group_name_H-M   'P 1'
_cell_length_a   6.60357300
_cell_length_b   6.60354758
_cell_length_c   6.60438721
_cell_angle_alpha   90.00771905
_cell_angle_beta   119.99576667
_cell_angle_gamma   119.99460211
_symmetry_Int_Tables_number   1
_chemical_formula_structural   SrNb6H17
_chemical_formula_sum   'Sr1 Nb6 H17'
_cell_volume   203.66096033
_cell_formula_units_Z   1
loop_
 _symmetry_equiv_pos_site_id
 _symmetry_equiv_pos_as_xyz
  1  'x, y, z'
loop_
 _atom_site_type_symbol
 _atom_site_label
 _atom_site_symmetry_multiplicity
 _atom_site_fract_x
 _atom_site_fract_y
 _atom_site_fract_z
 _atom_site_occupancy
  H  H0  1  0.75266300  0.62366600  0.37627100  1
  H  H1  1  0.78016000  0.74143100  0.33109500  1
  Nb  Nb2  1  1.00000000  1.00000000  0.50000000  1
  H  H3  1  0.72499200  0.86242900  0.13755100  1
  Nb  Nb4  1  0.50000000  0.50000000  1.00000000  1
  H  H5  1  0.27504600  0.41257500  0.13745700  1
  H  H6  1  0.72495400  0.58742500  0.86254300  1
  H  H7  1  0.27500800  0.13757100  0.86244900  1
  Nb  Nb8  1  0.50000000  0.00000000  0.50000000  1
  H  H9  1  0.27500300  0.13742800  0.41254300  1
  H  H10  1  0.72499700  0.86257200  0.58745700  1
  H  H11  1  0.27504800  0.86247700  0.13759800  1
  H  H12  1  0.72495200  0.13752400  0.86240200  1
  Nb  Nb13  1  1.00000000  0.50000000  1.00000000  1
  Nb  Nb14  1  0.50000000  1.00000000  0.00000000  1
  Nb  Nb15  1  0.50000000  0.50000000  0.50000000  1
  H  H16  1  0.24732000  0.62361100  0.87100400  1
  H  H17  1  0.75268000  0.37638900  0.12899700  1
  H  H18  1  0.24730600  0.62370300  0.37630200  1
  H  H19  1  0.75269400  0.37629800  0.62369800  1
  H  H20  1  0.24733800  0.87100500  0.62363000  1
  H  H21  1  0.75266200  0.12899500  0.37637000  1
  H  H22  1  0.24733700  0.37633400  0.62372900  1
  Sr  Sr23  1  0.00000000  0.00000000  0.00000000  1
