# generated using pymatgen
data_Sr2NbH7
_symmetry_space_group_name_H-M   'P 1'
_cell_length_a   4.57222900
_cell_length_b   5.12061021
_cell_length_c   5.59702064
_cell_angle_alpha   65.32295961
_cell_angle_beta   78.94652737
_cell_angle_gamma   87.33931473
_symmetry_Int_Tables_number   1
_chemical_formula_structural   Sr2NbH7
_chemical_formula_sum   'Sr2 Nb1 H7'
_cell_volume   116.78152209
_cell_formula_units_Z   1
loop_
 _symmetry_equiv_pos_site_id
 _symmetry_equiv_pos_as_xyz
  1  'x, y, z'
loop_
 _atom_site_type_symbol
 _atom_site_label
 _atom_site_symmetry_multiplicity
 _atom_site_fract_x
 _atom_site_fract_y
 _atom_site_fract_z
 _atom_site_occupancy
  Sr  Sr0  1  0.20635800  0.79083800  0.38004600  1
  H  H1  1  0.03942700  0.48057800  0.53432500  1
  H  H2  1  0.25079900  0.48116700  0.05508100  1
  H  H3  1  0.43662200  0.56898100  0.89914700  1
  H  H4  1  0.67989800  0.67591600  0.82849700  1
  H  H5  1  0.83104200  0.89607300  0.74673800  1
  H  H6  1  0.58996300  0.46127000  0.07528100  1
  H  H7  1  0.38622900  0.30923500  0.30489600  1
  Nb  Nb8  1  0.51298200  0.23683500  0.89801500  1
  Sr  Sr9  1  0.70693000  0.26634600  0.47302600  1
