# generated using pymatgen
data_SrNb2H9
_symmetry_space_group_name_H-M   'P 1'
_cell_length_a   3.40344900
_cell_length_b   4.54484569
_cell_length_c   6.80440337
_cell_angle_alpha   109.30457937
_cell_angle_beta   96.34743852
_cell_angle_gamma   90.03154212
_symmetry_Int_Tables_number   1
_chemical_formula_structural   SrNb2H9
_chemical_formula_sum   'Sr1 Nb2 H9'
_cell_volume   98.64752717
_cell_formula_units_Z   1
loop_
 _symmetry_equiv_pos_site_id
 _symmetry_equiv_pos_as_xyz
  1  'x, y, z'
loop_
 _atom_site_type_symbol
 _atom_site_label
 _atom_site_symmetry_multiplicity
 _atom_site_fract_x
 _atom_site_fract_y
 _atom_site_fract_z
 _atom_site_occupancy
  H  H0  1  0.79379400  0.99786300  0.07836200  1
  H  H1  1  0.97508400  0.00047300  0.98816000  1
  H  H2  1  0.29367600  0.81965100  0.07956300  1
  Nb  Nb3  1  0.08809400  0.93963300  0.21727300  1
  H  H4  1  0.57479100  0.24246500  0.19020900  1
  H  H5  1  0.30150600  0.19436100  0.42213500  1
  H  H6  1  0.66238500  0.97133600  0.36645500  1
  H  H7  1  0.15767100  0.51430500  0.35792700  1
  Sr  Sr8  1  0.78504800  0.06953300  0.66922700  1
  H  H9  1  0.90073700  0.34377900  0.84053100  1
  H  H10  1  0.32273100  0.15982700  0.68356100  1
  Nb  Nb11  1  0.45604000  0.30315300  0.95169400  1
