# generated using pymatgen
data_Sr2NbH9
_symmetry_space_group_name_H-M   'P 1'
_cell_length_a   4.72987300
_cell_length_b   5.59923580
_cell_length_c   5.68859838
_cell_angle_alpha   87.81885076
_cell_angle_beta   74.13335249
_cell_angle_gamma   87.81023410
_symmetry_Int_Tables_number   1
_chemical_formula_structural   Sr2NbH9
_chemical_formula_sum   'Sr2 Nb1 H9'
_cell_volume   144.74953693
_cell_formula_units_Z   1
loop_
 _symmetry_equiv_pos_site_id
 _symmetry_equiv_pos_as_xyz
  1  'x, y, z'
loop_
 _atom_site_type_symbol
 _atom_site_label
 _atom_site_symmetry_multiplicity
 _atom_site_fract_x
 _atom_site_fract_y
 _atom_site_fract_z
 _atom_site_occupancy
  H  H0  1  0.85149500  0.98831200  0.16945600  1
  H  H1  1  0.92991700  0.86861900  0.94221500  1
  H  H2  1  0.62647000  0.13875400  0.40934400  1
  H  H3  1  0.28984800  0.97788100  0.66745600  1
  Sr  Sr4  1  0.14381600  0.05697000  0.39197100  1
  Sr  Sr5  1  0.48221500  0.68740400  0.73638900  1
  Nb  Nb6  1  0.81059300  0.37149900  0.06897500  1
  H  H7  1  0.17645100  0.25765800  0.95524800  1
  H  H8  1  0.54444200  0.19630200  0.99224900  1
  H  H9  1  0.89639100  0.56494200  0.32330000  1
  H  H10  1  0.91939600  0.47037000  0.70668800  1
  H  H11  1  0.46898400  0.59455600  0.29640400  1
