# generated using pymatgen
data_Sr2NbH9
_symmetry_space_group_name_H-M   'P 1'
_cell_length_a   3.31153100
_cell_length_b   8.31948701
_cell_length_c   9.41298952
_cell_angle_alpha   100.34037961
_cell_angle_beta   94.24125690
_cell_angle_gamma   95.00646343
_symmetry_Int_Tables_number   1
_chemical_formula_structural   Sr2NbH9
_chemical_formula_sum   'Sr2 Nb1 H9'
_cell_volume   253.08003452
_cell_formula_units_Z   1
loop_
 _symmetry_equiv_pos_site_id
 _symmetry_equiv_pos_as_xyz
  1  'x, y, z'
loop_
 _atom_site_type_symbol
 _atom_site_label
 _atom_site_symmetry_multiplicity
 _atom_site_fract_x
 _atom_site_fract_y
 _atom_site_fract_z
 _atom_site_occupancy
  H  H0  1  0.24034900  0.17779200  0.57327200  1
  H  H1  1  0.21050300  0.17437900  0.71582200  1
  H  H2  1  0.63758700  0.23360200  0.65330000  1
  H  H3  1  0.60082900  0.03229000  0.70208000  1
  H  H4  1  0.39781800  0.93336500  0.21616800  1
  H  H5  1  0.73547900  0.95550800  0.27389700  1
  H  H6  1  0.67231400  0.98695400  0.43697700  1
  Nb  Nb7  1  0.30976900  0.93844600  0.38850100  1
  H  H8  1  0.99661900  0.81520800  0.40589500  1
  H  H9  1  0.42873800  0.05977700  0.02552000  1
  Sr  Sr10  1  0.46280200  0.29342100  0.13535200  1
  Sr  Sr11  1  0.05947500  0.36822400  0.93039600  1
