# generated using pymatgen
data_Sr2NbH7
_symmetry_space_group_name_H-M   'P 1'
_cell_length_a   3.62976400
_cell_length_b   5.96654814
_cell_length_c   6.16136195
_cell_angle_alpha   61.06732900
_cell_angle_beta   89.71416909
_cell_angle_gamma   89.94118262
_symmetry_Int_Tables_number   1
_chemical_formula_structural   Sr2NbH7
_chemical_formula_sum   'Sr2 Nb1 H7'
_cell_volume   116.78150475
_cell_formula_units_Z   1
loop_
 _symmetry_equiv_pos_site_id
 _symmetry_equiv_pos_as_xyz
  1  'x, y, z'
loop_
 _atom_site_type_symbol
 _atom_site_label
 _atom_site_symmetry_multiplicity
 _atom_site_fract_x
 _atom_site_fract_y
 _atom_site_fract_z
 _atom_site_occupancy
  H  H0  1  0.29997000  0.56731700  0.43155100  1
  H  H1  1  0.30150600  0.87689500  0.08816500  1
  H  H2  1  0.29978900  0.53612900  0.77434900  1
  H  H3  1  0.29367600  0.90903300  0.43073700  1
  Nb  Nb4  1  0.29770100  0.47036700  0.15669400  1
  H  H5  1  0.79379400  0.72962100  0.43193700  1
  H  H6  1  0.28944600  0.19660500  0.70935500  1
  H  H7  1  0.79119900  0.37552700  0.43150300  1
  Sr  Sr8  1  0.79949100  0.21197300  0.09320200  1
  Sr  Sr9  1  0.79170200  0.87461600  0.76858000  1
