# generated using pymatgen
data_Sr2NbH7
_symmetry_space_group_name_H-M   'P 1'
_cell_length_a   3.51341000
_cell_length_b   5.78412225
_cell_length_c   5.79883520
_cell_angle_alpha   97.68883576
_cell_angle_beta   89.73681041
_cell_angle_gamma   89.73416968
_symmetry_Int_Tables_number   1
_chemical_formula_structural   Sr2NbH7
_chemical_formula_sum   'Sr2 Nb1 H7'
_cell_volume   116.78151431
_cell_formula_units_Z   1
loop_
 _symmetry_equiv_pos_site_id
 _symmetry_equiv_pos_as_xyz
  1  'x, y, z'
loop_
 _atom_site_type_symbol
 _atom_site_label
 _atom_site_symmetry_multiplicity
 _atom_site_fract_x
 _atom_site_fract_y
 _atom_site_fract_z
 _atom_site_occupancy
  Sr  Sr0  1  0.05087900  0.74570700  0.05832600  1
  H  H1  1  0.03644200  0.65373800  0.74845500  1
  H  H2  1  0.03575200  0.43396100  0.96684600  1
  H  H3  1  0.52393100  0.86077600  0.17650200  1
  H  H4  1  0.52484900  0.62420100  0.93620100  1
  H  H5  1  0.04647300  0.01450200  0.89875100  1
  H  H6  1  0.04599900  0.58432600  0.32687000  1
  H  H7  1  0.02527700  0.01061000  0.32477600  1
  Sr  Sr8  1  0.53858900  0.82136200  0.57630600  1
  Nb  Nb9  1  0.53822600  0.26263400  0.13588200  1
