# generated using pymatgen
data_Sr2NbH12
_symmetry_space_group_name_H-M   'P 1'
_cell_length_a   4.18342900
_cell_length_b   6.39934187
_cell_length_c   6.92234527
_cell_angle_alpha   67.33530479
_cell_angle_beta   74.25320352
_cell_angle_gamma   75.86719572
_symmetry_Int_Tables_number   1
_chemical_formula_structural   Sr2NbH12
_chemical_formula_sum   'Sr2 Nb1 H12'
_cell_volume   162.54464947
_cell_formula_units_Z   1
loop_
 _symmetry_equiv_pos_site_id
 _symmetry_equiv_pos_as_xyz
  1  'x, y, z'
loop_
 _atom_site_type_symbol
 _atom_site_label
 _atom_site_symmetry_multiplicity
 _atom_site_fract_x
 _atom_site_fract_y
 _atom_site_fract_z
 _atom_site_occupancy
  H  H0  1  0.45716500  0.40737200  0.17205000  1
  H  H1  1  0.47817900  0.22148500  0.16576300  1
  H  H2  1  0.55946300  0.43964100  0.60804900  1
  H  H3  1  0.68038100  0.48736400  0.65822800  1
  H  H4  1  0.91956700  0.60445300  0.31209400  1
  H  H5  1  0.00587600  0.57203700  0.48900500  1
  H  H6  1  0.21420100  0.30294900  0.80698600  1
  Nb  Nb7  1  0.34051200  0.83432900  0.65765600  1
  H  H8  1  0.05311100  0.87384200  0.69053700  1
  H  H9  1  0.14022100  0.04600000  0.70262600  1
  Sr  Sr10  1  0.71902200  0.81614500  0.86233900  1
  H  H11  1  0.29623700  0.26655000  0.53044300  1
  H  H12  1  0.18451400  0.97376600  0.29056200  1
  H  H13  1  0.44376300  0.79764500  0.39030100  1
  Sr  Sr14  1  0.78287600  0.89367000  0.38527700  1
