# generated using pymatgen
data_SrNbH7
_symmetry_space_group_name_H-M   'P 1'
_cell_length_a   3.79632600
_cell_length_b   4.89397054
_cell_length_c   4.94968881
_cell_angle_alpha   91.88162064
_cell_angle_beta   102.96147914
_cell_angle_gamma   102.79060180
_symmetry_Int_Tables_number   1
_chemical_formula_structural   SrNbH7
_chemical_formula_sum   'Sr1 Nb1 H7'
_cell_volume   87.06407677
_cell_formula_units_Z   1
loop_
 _symmetry_equiv_pos_site_id
 _symmetry_equiv_pos_as_xyz
  1  'x, y, z'
loop_
 _atom_site_type_symbol
 _atom_site_label
 _atom_site_symmetry_multiplicity
 _atom_site_fract_x
 _atom_site_fract_y
 _atom_site_fract_z
 _atom_site_occupancy
  H  H0  1  0.26271200  0.00935800  0.21047300  1
  H  H1  1  0.00018200  0.71747600  0.04528200  1
  Nb  Nb2  1  0.49907200  0.78712000  0.07541200  1
  H  H3  1  0.71671900  0.01618400  0.21137700  1
  H  H4  1  0.49937000  0.71134200  0.37837100  1
  H  H5  1  0.50156800  0.47602600  0.14238600  1
  H  H6  1  0.00472200  0.26734600  0.58157500  1
  H  H7  1  0.37823900  0.31958600  0.82097800  1
  Sr  Sr8  1  0.94334700  0.90273200  0.67170300  1
