# generated using pymatgen
data_SrNb6H17
_symmetry_space_group_name_H-M   'P 1'
_cell_length_a   6.52126800
_cell_length_b   6.60619285
_cell_length_c   6.61834050
_cell_angle_alpha   90.43509388
_cell_angle_beta   119.50833771
_cell_angle_gamma   119.56363616
_symmetry_Int_Tables_number   1
_chemical_formula_structural   SrNb6H17
_chemical_formula_sum   'Sr1 Nb6 H17'
_cell_volume   203.66096733
_cell_formula_units_Z   1
loop_
 _symmetry_equiv_pos_site_id
 _symmetry_equiv_pos_as_xyz
  1  'x, y, z'
loop_
 _atom_site_type_symbol
 _atom_site_label
 _atom_site_symmetry_multiplicity
 _atom_site_fract_x
 _atom_site_fract_y
 _atom_site_fract_z
 _atom_site_occupancy
  H  H0  1  0.52226400  0.01469800  0.02488400  1
  H  H1  1  0.29208500  0.86826800  0.15410200  1
  H  H2  1  0.73493700  0.86773600  0.15351900  1
  Nb  Nb3  1  0.49844400  0.99611100  0.51095000  1
  Nb  Nb4  1  0.01327000  0.99554800  0.51049800  1
  H  H5  1  0.07126400  0.80862300  0.32675900  1
  Nb  Nb6  1  0.27447700  0.88014600  0.66282300  1
  Nb  Nb7  1  0.51791400  0.51069800  0.52031500  1
  H  H8  1  0.30004700  0.16114500  0.43367100  1
  H  H9  1  0.74013200  0.59892100  0.87729500  1
  Nb  Nb10  1  0.51231100  0.50375600  0.01296000  1
  H  H11  1  0.00891700  0.50414800  0.01351800  1
  H  H12  1  0.73530200  0.14516700  0.87467000  1
  Nb  Nb13  1  0.28899400  0.14457600  0.87407500  1
  H  H14  1  0.74116200  0.87146400  0.60551700  1
  H  H15  1  0.29231500  0.42236500  0.15825800  1
  H  H16  1  0.26094200  0.62564300  0.39476700  1
  H  H17  1  0.76327800  0.62499200  0.39356200  1
  H  H18  1  0.77027800  0.38490700  0.15160400  1
  H  H19  1  0.76551700  0.37788600  0.64206100  1
  H  H20  1  0.25832100  0.37703900  0.64115800  1
  H  H21  1  0.26445900  0.63517500  0.88965800  1
  H  H22  1  0.76784400  0.13122200  0.39922600  1
  Sr  Sr23  1  0.01586300  0.01104000  0.01558300  1
