# generated using pymatgen
data_Sr2NbH9
_symmetry_space_group_name_H-M   'P 1'
_cell_length_a   4.60963600
_cell_length_b   5.29743400
_cell_length_c   5.98136905
_cell_angle_alpha   83.66548285
_cell_angle_beta   87.88846427
_cell_angle_gamma   85.98240639
_symmetry_Int_Tables_number   1
_chemical_formula_structural   Sr2NbH9
_chemical_formula_sum   'Sr2 Nb1 H9'
_cell_volume   144.74956091
_cell_formula_units_Z   1
loop_
 _symmetry_equiv_pos_site_id
 _symmetry_equiv_pos_as_xyz
  1  'x, y, z'
loop_
 _atom_site_type_symbol
 _atom_site_label
 _atom_site_symmetry_multiplicity
 _atom_site_fract_x
 _atom_site_fract_y
 _atom_site_fract_z
 _atom_site_occupancy
  H  H0  1  0.83289400  0.05358400  0.89814600  1
  H  H1  1  0.64516500  0.09833900  0.00486900  1
  H  H2  1  0.76194500  0.89071100  0.02957500  1
  H  H3  1  0.99503200  0.80926800  0.13459000  1
  Sr  Sr4  1  0.00913100  0.18104500  0.01648300  1
  H  H5  1  0.18170300  0.08297800  0.25613300  1
  Nb  Nb6  1  0.46793300  0.19627900  0.76505700  1
  Sr  Sr7  1  0.40001700  0.80552000  0.08289600  1
  H  H8  1  0.55566500  0.77401500  0.81717200  1
  H  H9  1  0.06907100  0.22783700  0.57765500  1
  H  H10  1  0.72364700  0.09468200  0.52282000  1
  H  H11  1  0.97214900  0.54466700  0.89172500  1
