# generated using pymatgen
data_Sr3Nb2H15
_symmetry_space_group_name_H-M   'P 1'
_cell_length_a   4.45922500
_cell_length_b   6.69574793
_cell_length_c   8.45174033
_cell_angle_alpha   111.87908138
_cell_angle_beta   99.98914928
_cell_angle_gamma   96.87752105
_symmetry_Int_Tables_number   1
_chemical_formula_structural   Sr3Nb2H15
_chemical_formula_sum   'Sr3 Nb2 H15'
_cell_volume   225.88189401
_cell_formula_units_Z   1
loop_
 _symmetry_equiv_pos_site_id
 _symmetry_equiv_pos_as_xyz
  1  'x, y, z'
loop_
 _atom_site_type_symbol
 _atom_site_label
 _atom_site_symmetry_multiplicity
 _atom_site_fract_x
 _atom_site_fract_y
 _atom_site_fract_z
 _atom_site_occupancy
  H  H0  1  0.64424500  0.50108800  0.34081400  1
  H  H1  1  0.71957700  0.66702400  0.28441200  1
  Nb  Nb2  1  0.27863800  0.59757600  0.32123800  1
  H  H3  1  0.27329300  0.76433100  0.25420100  1
  H  H4  1  0.13677600  0.41841300  0.37416100  1
  Sr  Sr5  1  0.11947100  0.03387900  0.48923900  1
  H  H6  1  0.31090200  0.87186700  0.53935200  1
  H  H7  1  0.70491000  0.79343800  0.56702300  1
  Sr  Sr8  1  0.90283400  0.59844200  0.64467800  1
  H  H9  1  0.14424500  0.00108800  0.84081400  1
  H  H10  1  0.21957700  0.16702400  0.78441200  1
  H  H11  1  0.72790800  0.93874900  0.01738600  1
  H  H12  1  0.63677600  0.91841300  0.87416100  1
  H  H13  1  0.85964200  0.97025700  0.18671800  1
  Nb  Nb14  1  0.77863800  0.09757600  0.82123800  1
  H  H15  1  0.77329300  0.26433100  0.75420100  1
  Sr  Sr16  1  0.40283400  0.09844200  0.14467800  1
  H  H17  1  0.10454000  0.70600800  0.94179000  1
  H  H18  1  0.60454000  0.20600800  0.44179000  1
  H  H19  1  0.35964200  0.47025700  0.68671800  1
