# generated using pymatgen
data_Sr3Nb2H17
_symmetry_space_group_name_H-M   'P 1'
_cell_length_a   5.75013200
_cell_length_b   6.11985949
_cell_length_c   6.94522019
_cell_angle_alpha   95.89668902
_cell_angle_beta   95.27362026
_cell_angle_gamma   100.20437841
_symmetry_Int_Tables_number   1
_chemical_formula_structural   Sr3Nb2H17
_chemical_formula_sum   'Sr3 Nb2 H17'
_cell_volume   237.74531967
_cell_formula_units_Z   1
loop_
 _symmetry_equiv_pos_site_id
 _symmetry_equiv_pos_as_xyz
  1  'x, y, z'
loop_
 _atom_site_type_symbol
 _atom_site_label
 _atom_site_symmetry_multiplicity
 _atom_site_fract_x
 _atom_site_fract_y
 _atom_site_fract_z
 _atom_site_occupancy
  H  H0  1  0.27383200  0.18818600  0.52769200  1
  H  H1  1  0.20949100  0.96816500  0.45409300  1
  Nb  Nb2  1  0.07468900  0.41131000  0.52178000  1
  H  H3  1  0.90811300  0.18111000  0.52722400  1
  H  H4  1  0.02482100  0.47372900  0.76823300  1
  H  H5  1  0.27508800  0.38746500  0.33557200  1
  H  H6  1  0.24872200  0.28637000  0.01978500  1
  H  H7  1  0.24554300  0.19327400  0.94644900  1
  H  H8  1  0.24303000  0.97619700  0.99194400  1
  Nb  Nb9  1  0.19875800  0.80511200  0.71909900  1
  H  H10  1  0.88348000  0.72194100  0.72236900  1
  H  H11  1  0.42380000  0.76734700  0.90882800  1
  H  H12  1  0.49885900  0.59014200  0.22317700  1
  H  H13  1  0.86835900  0.36427100  0.27933000  1
  H  H14  1  0.39258600  0.47165000  0.68678200  1
  H  H15  1  0.67117700  0.53485800  0.00077100  1
  Sr  Sr16  1  0.90196800  0.67696900  0.23647500  1
  H  H17  1  0.67117700  0.03485800  0.00077100  1
  H  H18  1  0.44376100  0.77755900  0.54038000  1
  Sr  Sr19  1  0.68695600  0.23887900  0.79557500  1
  H  H20  1  0.72376600  0.42877800  0.52634400  1
  Sr  Sr21  1  0.53864900  0.11984500  0.27904600  1
