# generated using pymatgen
data_Sr2NbH8
_symmetry_space_group_name_H-M   'P 1'
_cell_length_a   3.84901300
_cell_length_b   5.58064335
_cell_length_c   6.46692946
_cell_angle_alpha   87.99382521
_cell_angle_beta   89.46206861
_cell_angle_gamma   89.84911780
_symmetry_Int_Tables_number   1
_chemical_formula_structural   Sr2NbH8
_chemical_formula_sum   'Sr2 Nb1 H8'
_cell_volume   138.81781233
_cell_formula_units_Z   1
loop_
 _symmetry_equiv_pos_site_id
 _symmetry_equiv_pos_as_xyz
  1  'x, y, z'
loop_
 _atom_site_type_symbol
 _atom_site_label
 _atom_site_symmetry_multiplicity
 _atom_site_fract_x
 _atom_site_fract_y
 _atom_site_fract_z
 _atom_site_occupancy
  H  H0  1  0.59606100  0.52395600  0.54466500  1
  H  H1  1  0.66839300  0.63165900  0.82583400  1
  H  H2  1  0.17750000  0.07283400  0.85304900  1
  H  H3  1  0.08083000  0.11471600  0.93106300  1
  H  H4  1  0.13927000  0.41536400  0.87089400  1
  Nb  Nb5  1  0.60622100  0.27040600  0.86350400  1
  H  H6  1  0.78728600  0.15188000  0.60161600  1
  H  H7  1  0.51170900  0.29824100  0.16975800  1
  H  H8  1  0.53773700  0.89621600  0.13080300  1
  Sr  Sr9  1  0.01332000  0.58692600  0.17818100  1
  Sr  Sr10  1  0.29436700  0.90099800  0.54233900  1
