# generated using pymatgen
data_SrNbH12
_symmetry_space_group_name_H-M   'P 1'
_cell_length_a   4.09162000
_cell_length_b   5.29020756
_cell_length_c   5.97864922
_cell_angle_alpha   103.49648172
_cell_angle_beta   105.10099185
_cell_angle_gamma   101.51667025
_symmetry_Int_Tables_number   1
_chemical_formula_structural   SrNbH12
_chemical_formula_sum   'Sr1 Nb1 H12'
_cell_volume   116.72265937
_cell_formula_units_Z   1
loop_
 _symmetry_equiv_pos_site_id
 _symmetry_equiv_pos_as_xyz
  1  'x, y, z'
loop_
 _atom_site_type_symbol
 _atom_site_label
 _atom_site_symmetry_multiplicity
 _atom_site_fract_x
 _atom_site_fract_y
 _atom_site_fract_z
 _atom_site_occupancy
  H  H0  1  0.43113200  0.53326900  0.11067300  1
  H  H1  1  0.66926000  0.52896500  0.10828700  1
  Nb  Nb2  1  0.41025000  0.67934000  0.81852300  1
  H  H3  1  0.68268200  0.74185400  0.94343200  1
  H  H4  1  0.55650800  0.93185100  0.09302300  1
  H  H5  1  0.93454700  0.85497900  0.83294600  1
  H  H6  1  0.40761100  0.00014500  0.78420700  1
  H  H7  1  0.34950000  0.33564100  0.65301700  1
  H  H8  1  0.14807600  0.30034900  0.26359100  1
  H  H9  1  0.10404100  0.18011300  0.16026300  1
  H  H10  1  0.02007000  0.24398700  0.96438200  1
  H  H11  1  0.92184200  0.49024800  0.80620600  1
  H  H12  1  0.24583900  0.69013400  0.48749000  1
  Sr  Sr13  1  0.77365000  0.05824000  0.50424900  1
