# generated using pymatgen
data_Sr2NbH9
_symmetry_space_group_name_H-M   'P 1'
_cell_length_a   4.36290300
_cell_length_b   4.92615008
_cell_length_c   6.83237859
_cell_angle_alpha   84.74396578
_cell_angle_beta   89.70966144
_cell_angle_gamma   81.86325733
_symmetry_Int_Tables_number   1
_chemical_formula_structural   Sr2NbH9
_chemical_formula_sum   'Sr2 Nb1 H9'
_cell_volume   144.74950553
_cell_formula_units_Z   1
loop_
 _symmetry_equiv_pos_site_id
 _symmetry_equiv_pos_as_xyz
  1  'x, y, z'
loop_
 _atom_site_type_symbol
 _atom_site_label
 _atom_site_symmetry_multiplicity
 _atom_site_fract_x
 _atom_site_fract_y
 _atom_site_fract_z
 _atom_site_occupancy
  Nb  Nb0  1  0.11222600  0.37749200  0.33727600  1
  H  H1  1  0.01063800  0.18830200  0.45352700  1
  H  H2  1  0.23898700  0.86364400  0.34176500  1
  H  H3  1  0.45846000  0.88307600  0.39067200  1
  Sr  Sr4  1  0.53012800  0.59526700  0.40880300  1
  H  H5  1  0.55655100  0.46867700  0.60472700  1
  H  H6  1  0.75520200  0.93129600  0.48782300  1
  H  H7  1  0.25452700  0.25327800  0.12026600  1
  H  H8  1  0.01746600  0.06264800  0.18805500  1
  Sr  Sr9  1  0.22111000  0.59928500  0.81719000  1
  H  H10  1  0.24196600  0.24845700  0.82137700  1
  H  H11  1  0.93776000  0.41531700  0.95901400  1
