# generated using pymatgen
data_Sr(NbH4)2
_symmetry_space_group_name_H-M   'P 1'
_cell_length_a   3.64664600
_cell_length_b   4.70453755
_cell_length_c   6.04035906
_cell_angle_alpha   69.38286854
_cell_angle_beta   75.34842000
_cell_angle_gamma   76.78637997
_symmetry_Int_Tables_number   1
_chemical_formula_structural   Sr(NbH4)2
_chemical_formula_sum   'Sr1 Nb2 H8'
_cell_volume   92.71581340
_cell_formula_units_Z   1
loop_
 _symmetry_equiv_pos_site_id
 _symmetry_equiv_pos_as_xyz
  1  'x, y, z'
loop_
 _atom_site_type_symbol
 _atom_site_label
 _atom_site_symmetry_multiplicity
 _atom_site_fract_x
 _atom_site_fract_y
 _atom_site_fract_z
 _atom_site_occupancy
  H  H0  1  0.26900100  0.99115700  0.90547600  1
  H  H1  1  0.53491600  0.09623000  0.67368000  1
  H  H2  1  0.34754200  0.99781200  0.20714800  1
  H  H3  1  0.53200200  0.88528400  0.39160800  1
  H  H4  1  0.61809400  0.17789400  0.06894300  1
  Nb  Nb5  1  0.54208700  0.24088000  0.34856700  1
  Nb  Nb6  1  0.29411900  0.66269500  0.16846000  1
  H  H7  1  0.60294100  0.56454900  0.10603700  1
  H  H8  1  0.14615400  0.68111700  0.44391000  1
  H  H9  1  0.84771200  0.45537300  0.38382100  1
  Sr  Sr10  1  0.72715500  0.56083100  0.70627100  1
