# generated using pymatgen
data_Sr2NbH9
_symmetry_space_group_name_H-M   'P 1'
_cell_length_a   4.14471500
_cell_length_b   7.39509368
_cell_length_c   8.56009000
_cell_angle_alpha   86.82923769
_cell_angle_beta   79.21967779
_cell_angle_gamma   79.15171957
_symmetry_Int_Tables_number   1
_chemical_formula_structural   Sr2NbH9
_chemical_formula_sum   'Sr2 Nb1 H9'
_cell_volume   253.07998741
_cell_formula_units_Z   1
loop_
 _symmetry_equiv_pos_site_id
 _symmetry_equiv_pos_as_xyz
  1  'x, y, z'
loop_
 _atom_site_type_symbol
 _atom_site_label
 _atom_site_symmetry_multiplicity
 _atom_site_fract_x
 _atom_site_fract_y
 _atom_site_fract_z
 _atom_site_occupancy
  H  H0  1  0.18403800  0.88753400  0.22544100  1
  Sr  Sr1  1  0.24964200  0.84743400  0.39642300  1
  H  H2  1  0.43146600  0.99785500  0.80720300  1
  H  H3  1  0.16839400  0.04956900  0.82818600  1
  H  H4  1  0.26473700  0.92801400  0.99889200  1
  H  H5  1  0.60110900  0.12874200  0.36518600  1
  H  H6  1  0.60199400  0.15559000  0.41827800  1
  Nb  Nb7  1  0.55095600  0.39353000  0.35278800  1
  H  H8  1  0.88700500  0.09688900  0.56584600  1
  H  H9  1  0.51689600  0.61988000  0.22866600  1
  H  H10  1  0.93993700  0.37347800  0.64314600  1
  Sr  Sr11  1  0.65230300  0.37652800  0.93749300  1
