# generated using pymatgen
data_SrNbH22
_symmetry_space_group_name_H-M   'P 1'
_cell_length_a   4.93845200
_cell_length_b   5.56393414
_cell_length_c   6.42537084
_cell_angle_alpha   90.00041099
_cell_angle_beta   90.67528211
_cell_angle_gamma   94.30965872
_symmetry_Int_Tables_number   1
_chemical_formula_structural   SrNbH22
_chemical_formula_sum   'Sr1 Nb1 H22'
_cell_volume   176.03983835
_cell_formula_units_Z   1
loop_
 _symmetry_equiv_pos_site_id
 _symmetry_equiv_pos_as_xyz
  1  'x, y, z'
loop_
 _atom_site_type_symbol
 _atom_site_label
 _atom_site_symmetry_multiplicity
 _atom_site_fract_x
 _atom_site_fract_y
 _atom_site_fract_z
 _atom_site_occupancy
  H  H0  1  0.62282300  0.87965800  0.34186200  1
  H  H1  1  0.71397300  0.80144700  0.34186200  1
  H  H2  1  0.33333300  0.66666600  0.13709900  1
  H  H3  1  0.33333300  0.66666600  0.04662500  1
  H  H4  1  0.12034200  0.74316500  0.34186200  1
  H  H5  1  0.19855300  0.91252500  0.34186200  1
  H  H6  1  0.91158200  0.49673500  0.59779300  1
  H  H7  1  0.85226900  0.40508100  0.71920000  1
  H  H8  1  0.74316500  0.62282300  0.09186200  1
  H  H9  1  0.91252500  0.71397300  0.09186200  1
  H  H10  1  0.02426800  0.71587400  0.80744700  1
  H  H11  1  0.29675300  0.93207000  0.80215900  1
  Nb  Nb12  1  0.66726100  0.71457300  0.83248600  1
  H  H13  1  0.46399200  0.57622500  0.63662900  1
  H  H14  1  0.68920800  0.97093300  0.67317800  1
  H  H15  1  0.37717700  0.12034200  0.09186200  1
  H  H16  1  0.28602700  0.19855300  0.09186200  1
  Sr  Sr17  1  0.36196900  0.29878300  0.89877200  1
  H  H18  1  0.25683500  0.37717700  0.34186200  1
  H  H19  1  0.08747500  0.28602700  0.34186200  1
  H  H20  1  0.66666700  0.33333400  0.29662500  1
  H  H21  1  0.66666700  0.33333400  0.38709900  1
  H  H22  1  0.87965800  0.25683500  0.09186200  1
  H  H23  1  0.80144700  0.08747500  0.09186200  1
