# generated using pymatgen
data_Sr3Nb2H17
_symmetry_space_group_name_H-M   'P 1'
_cell_length_a   6.01328400
_cell_length_b   6.76679660
_cell_length_c   6.48361861
_cell_angle_alpha   68.69365323
_cell_angle_beta   75.97523803
_cell_angle_gamma   80.89885498
_symmetry_Int_Tables_number   1
_chemical_formula_structural   Sr3Nb2H17
_chemical_formula_sum   'Sr3 Nb2 H17'
_cell_volume   237.74531874
_cell_formula_units_Z   1
loop_
 _symmetry_equiv_pos_site_id
 _symmetry_equiv_pos_as_xyz
  1  'x, y, z'
loop_
 _atom_site_type_symbol
 _atom_site_label
 _atom_site_symmetry_multiplicity
 _atom_site_fract_x
 _atom_site_fract_y
 _atom_site_fract_z
 _atom_site_occupancy
  H  H0  1  0.32770700  0.90528100  0.30004400  1
  Sr  Sr1  1  0.56511400  0.05290500  0.11445900  1
  H  H2  1  0.31923200  0.32410300  0.03617600  1
  Sr  Sr3  1  0.12712200  0.52638900  0.59381900  1
  H  H4  1  0.23958500  0.61273400  0.72739800  1
  Nb  Nb5  1  0.07724700  0.63287700  0.98949800  1
  H  H6  1  0.90066200  0.59413500  0.88891500  1
  H  H7  1  0.15109600  0.77292800  0.10141000  1
  H  H8  1  0.84273000  0.81451700  0.06259400  1
  H  H9  1  0.11260500  0.89389500  0.75691100  1
  H  H10  1  0.66045100  0.67603700  0.68156800  1
  H  H11  1  0.78695000  0.43602000  0.62854800  1
  H  H12  1  0.52317700  0.04393200  0.46816900  1
  H  H13  1  0.44482400  0.29322500  0.43112500  1
  Nb  Nb14  1  0.70988100  0.19121800  0.56011500  1
  H  H15  1  0.78086000  0.26206800  0.27494500  1
  H  H16  1  0.45979000  0.14481000  0.76007100  1
  H  H17  1  0.88018800  0.97969800  0.34684300  1
  H  H18  1  0.02974100  0.20990600  0.49814800  1
  H  H19  1  0.52317700  0.54393200  0.46816900  1
  H  H20  1  0.87167500  0.13923400  0.81528100  1
  Sr  Sr21  1  0.55891000  0.62734000  0.08088200  1
