# generated using pymatgen
data_SrNb2H9
_symmetry_space_group_name_H-M   'P 1'
_cell_length_a   3.69472100
_cell_length_b   3.72415449
_cell_length_c   7.31677174
_cell_angle_alpha   85.25363157
_cell_angle_beta   87.65474156
_cell_angle_gamma   79.59709349
_symmetry_Int_Tables_number   1
_chemical_formula_structural   SrNb2H9
_chemical_formula_sum   'Sr1 Nb2 H9'
_cell_volume   98.64753945
_cell_formula_units_Z   1
loop_
 _symmetry_equiv_pos_site_id
 _symmetry_equiv_pos_as_xyz
  1  'x, y, z'
loop_
 _atom_site_type_symbol
 _atom_site_label
 _atom_site_symmetry_multiplicity
 _atom_site_fract_x
 _atom_site_fract_y
 _atom_site_fract_z
 _atom_site_occupancy
  Nb  Nb0  1  0.89039700  0.17176700  0.22070900  1
  H  H1  1  0.51103200  0.00484600  0.23701300  1
  H  H2  1  0.97058500  0.39491000  0.98746600  1
  H  H3  1  0.77101000  0.33242800  0.90095900  1
  H  H4  1  0.76985800  0.70158800  0.99964700  1
  H  H5  1  0.29189200  0.44073100  0.55507700  1
  H  H6  1  0.35932000  0.60933400  0.65658900  1
  Nb  Nb7  1  0.59550000  0.61418900  0.52556700  1
  H  H8  1  0.58225300  0.21757600  0.50989700  1
  Sr  Sr9  1  0.74865400  0.04473700  0.67182900  1
  H  H10  1  0.42869900  0.46423300  0.33910900  1
  H  H11  1  0.08390900  0.97409500  0.81446600  1
