# generated using pymatgen
data_Sr2NbH7
_symmetry_space_group_name_H-M   'P 1'
_cell_length_a   2.98926100
_cell_length_b   4.16656532
_cell_length_c   18.80623278
_cell_angle_alpha   89.14618527
_cell_angle_beta   87.49146233
_cell_angle_gamma   74.32283114
_symmetry_Int_Tables_number   1
_chemical_formula_structural   Sr2NbH7
_chemical_formula_sum   'Sr2 Nb1 H7'
_cell_volume   225.29995029
_cell_formula_units_Z   1
loop_
 _symmetry_equiv_pos_site_id
 _symmetry_equiv_pos_as_xyz
  1  'x, y, z'
loop_
 _atom_site_type_symbol
 _atom_site_label
 _atom_site_symmetry_multiplicity
 _atom_site_fract_x
 _atom_site_fract_y
 _atom_site_fract_z
 _atom_site_occupancy
  H  H0  1  0.27512300  0.61404800  0.82156900  1
  H  H1  1  0.64360000  0.58976700  0.80832400  1
  H  H2  1  0.90960800  0.05759000  0.22921600  1
  H  H3  1  0.93345300  0.78772200  0.18785500  1
  Sr  Sr4  1  0.38480700  0.21810900  0.24173600  1
  H  H5  1  0.82407600  0.74801200  0.33319900  1
  H  H6  1  0.55148500  0.62375100  0.25587700  1
  H  H7  1  0.73602900  0.40984900  0.50240300  1
  Nb  Nb8  1  0.74185500  0.07154500  0.46843000  1
  Sr  Sr9  1  0.37124700  0.38204900  0.62338700  1
