# generated using pymatgen
data_Sr2NbH9
_symmetry_space_group_name_H-M   'P 1'
_cell_length_a   4.22680800
_cell_length_b   5.68120310
_cell_length_c   6.16878575
_cell_angle_alpha   100.10075222
_cell_angle_beta   92.28373826
_cell_angle_gamma   96.11003343
_symmetry_Int_Tables_number   1
_chemical_formula_structural   Sr2NbH9
_chemical_formula_sum   'Sr2 Nb1 H9'
_cell_volume   144.74954677
_cell_formula_units_Z   1
loop_
 _symmetry_equiv_pos_site_id
 _symmetry_equiv_pos_as_xyz
  1  'x, y, z'
loop_
 _atom_site_type_symbol
 _atom_site_label
 _atom_site_symmetry_multiplicity
 _atom_site_fract_x
 _atom_site_fract_y
 _atom_site_fract_z
 _atom_site_occupancy
  Nb  Nb0  1  0.30356600  0.42673000  0.77960200  1
  H  H1  1  0.12823200  0.67278900  0.90869500  1
  H  H2  1  0.60234500  0.66474100  0.90249300  1
  H  H3  1  0.12984500  0.17840400  0.90979900  1
  H  H4  1  0.71645700  0.78675600  0.19793800  1
  H  H5  1  0.19694400  0.17336700  0.54141600  1
  Sr  Sr6  1  0.96434000  0.19282400  0.19301800  1
  H  H7  1  0.15647100  0.59282100  0.20537400  1
  H  H8  1  0.30987700  0.92784300  0.22389400  1
  H  H9  1  0.60464000  0.19016800  0.90093400  1
  H  H10  1  0.19394300  0.67865200  0.54149100  1
  Sr  Sr11  1  0.74216600  0.92629200  0.64220500  1
