# generated using pymatgen
data_Sr2NbH12
_symmetry_space_group_name_H-M   'P 1'
_cell_length_a   4.17567700
_cell_length_b   5.69844076
_cell_length_c   6.87309854
_cell_angle_alpha   92.08364156
_cell_angle_beta   95.79391771
_cell_angle_gamma   91.29290537
_symmetry_Int_Tables_number   1
_chemical_formula_structural   Sr2NbH12
_chemical_formula_sum   'Sr2 Nb1 H12'
_cell_volume   162.54466359
_cell_formula_units_Z   1
loop_
 _symmetry_equiv_pos_site_id
 _symmetry_equiv_pos_as_xyz
  1  'x, y, z'
loop_
 _atom_site_type_symbol
 _atom_site_label
 _atom_site_symmetry_multiplicity
 _atom_site_fract_x
 _atom_site_fract_y
 _atom_site_fract_z
 _atom_site_occupancy
  H  H0  1  0.14951000  0.55520700  0.34687200  1
  H  H1  1  0.73199100  0.40411700  0.38551600  1
  H  H2  1  0.21273300  0.14012500  0.62276800  1
  H  H3  1  0.34587900  0.09146100  0.73727100  1
  H  H4  1  0.97419100  0.86674100  0.98255000  1
  H  H5  1  0.06643900  0.85315500  0.80927500  1
  Sr  Sr6  1  0.07090700  0.60240200  0.72167900  1
  H  H7  1  0.94344500  0.34999600  0.01576900  1
  H  H8  1  0.06643900  0.35315500  0.80927500  1
  Nb  Nb9  1  0.77097400  0.61037800  0.11358300  1
  H  H10  1  0.44350100  0.82238700  0.02361000  1
  H  H11  1  0.47884400  0.35669800  0.00822300  1
  H  H12  1  0.59608100  0.66032700  0.77390800  1
  H  H13  1  0.85185800  0.87721200  0.33040100  1
  Sr  Sr14  1  0.35492900  0.05945200  0.29216500  1
