# generated using pymatgen
data_SrNb3H16
_symmetry_space_group_name_H-M   'P 1'
_cell_length_a   4.82377000
_cell_length_b   5.55240496
_cell_length_c   5.77387381
_cell_angle_alpha   90.63531783
_cell_angle_beta   91.39190701
_cell_angle_gamma   91.11480061
_symmetry_Int_Tables_number   1
_chemical_formula_structural   SrNb3H16
_chemical_formula_sum   'Sr1 Nb3 H16'
_cell_volume   154.55945745
_cell_formula_units_Z   1
loop_
 _symmetry_equiv_pos_site_id
 _symmetry_equiv_pos_as_xyz
  1  'x, y, z'
loop_
 _atom_site_type_symbol
 _atom_site_label
 _atom_site_symmetry_multiplicity
 _atom_site_fract_x
 _atom_site_fract_y
 _atom_site_fract_z
 _atom_site_occupancy
  Nb  Nb0  1  0.97290600  0.39552600  0.27229200  1
  H  H1  1  0.81888300  0.51672900  0.49352200  1
  H  H2  1  0.93613800  0.15231800  0.43259300  1
  H  H3  1  0.95261900  0.06858100  0.18597800  1
  H  H4  1  0.93613800  0.15231800  0.93259300  1
  H  H5  1  0.95261900  0.06858100  0.68597800  1
  H  H6  1  0.35838600  0.68210400  0.92346200  1
  H  H7  1  0.25356100  0.66156600  0.75263900  1
  H  H8  1  0.06737500  0.81746400  0.64354200  1
  H  H9  1  0.27250300  0.42058500  0.96337000  1
  H  H10  1  0.35967600  0.68231400  0.36391100  1
  H  H11  1  0.25356100  0.66156600  0.25263900  1
  Nb  Nb12  1  0.14522700  0.83547700  0.14391400  1
  H  H13  1  0.82995900  0.77051300  0.14472400  1
  H  H14  1  0.27250300  0.42058500  0.46337000  1
  Nb  Nb15  1  0.97290600  0.39552600  0.77229200  1
  H  H16  1  0.81888300  0.51672900  0.99352200  1
  Sr  Sr17  1  0.65358600  0.90425600  0.64508600  1
  H  H18  1  0.44963800  0.27049600  0.24163900  1
  H  H19  1  0.44963800  0.27049600  0.74163900  1
