# generated using pymatgen
data_SrNbH13
_symmetry_space_group_name_H-M   'P 1'
_cell_length_a   4.94915800
_cell_length_b   5.04430100
_cell_length_c   5.01675850
_cell_angle_alpha   90.00890602
_cell_angle_beta   95.69463769
_cell_angle_gamma   79.84609954
_symmetry_Int_Tables_number   1
_chemical_formula_structural   SrNbH13
_chemical_formula_sum   'Sr1 Nb1 H13'
_cell_volume   122.65436293
_cell_formula_units_Z   1
loop_
 _symmetry_equiv_pos_site_id
 _symmetry_equiv_pos_as_xyz
  1  'x, y, z'
loop_
 _atom_site_type_symbol
 _atom_site_label
 _atom_site_symmetry_multiplicity
 _atom_site_fract_x
 _atom_site_fract_y
 _atom_site_fract_z
 _atom_site_occupancy
  H  H0  1  0.68759200  0.35717400  0.14895600  1
  H  H1  1  0.61476300  0.60545900  0.25024900  1
  H  H2  1  0.68759200  0.85717400  0.14895600  1
  H  H3  1  0.61476300  0.10545900  0.25024900  1
  Nb  Nb4  1  0.66808100  0.96774300  0.51242000  1
  H  H5  1  0.38814000  0.91952700  0.55647400  1
  H  H6  1  0.41265700  0.90263700  0.97582100  1
  H  H7  1  0.81505700  0.07151400  0.76749800  1
  H  H8  1  0.50114100  0.18441400  0.78438400  1
  H  H9  1  0.02269900  0.61512200  0.15118600  1
  H  H10  1  0.99498400  0.74677700  0.94669600  1
  H  H11  1  0.79050900  0.56243700  0.55346800  1
  H  H12  1  0.69482700  0.74350700  0.77070900  1
  Sr  Sr13  1  0.09803200  0.27124100  0.77108600  1
  H  H14  1  0.02269900  0.11512200  0.15118600  1
