# generated using pymatgen
data_Sr2NbH10
_symmetry_space_group_name_H-M   'P 1'
_cell_length_a   4.56645900
_cell_length_b   5.44985201
_cell_length_c   6.13420179
_cell_angle_alpha   80.79406622
_cell_angle_beta   89.98811904
_cell_angle_gamma   89.30148087
_symmetry_Int_Tables_number   1
_chemical_formula_structural   Sr2NbH10
_chemical_formula_sum   'Sr2 Nb1 H10'
_cell_volume   150.68124400
_cell_formula_units_Z   1
loop_
 _symmetry_equiv_pos_site_id
 _symmetry_equiv_pos_as_xyz
  1  'x, y, z'
loop_
 _atom_site_type_symbol
 _atom_site_label
 _atom_site_symmetry_multiplicity
 _atom_site_fract_x
 _atom_site_fract_y
 _atom_site_fract_z
 _atom_site_occupancy
  H  H0  1  0.19029700  0.91298500  0.79072500  1
  H  H1  1  0.24721100  0.93262500  0.62977000  1
  Nb  Nb2  1  0.74758200  0.85477300  0.61175700  1
  H  H3  1  0.96758000  0.64032400  0.76492000  1
  H  H4  1  0.52713000  0.64161400  0.76513000  1
  H  H5  1  0.74606400  0.01283200  0.33631900  1
  H  H6  1  0.74650900  0.94102400  0.91795700  1
  H  H7  1  0.74839300  0.17004100  0.67672100  1
  Sr  Sr8  1  0.24680600  0.85348600  0.09583900  1
  H  H9  1  0.96919000  0.67201100  0.40582000  1
  H  H10  1  0.53155100  0.67039000  0.40379400  1
  Sr  Sr11  1  0.24875500  0.34641400  0.54297800  1
  H  H12  1  0.24581000  0.30602600  0.12558600  1
