# generated using pymatgen
data_SrNb5H17
_symmetry_space_group_name_H-M   'P 1'
_cell_length_a   4.97811200
_cell_length_b   5.34228273
_cell_length_c   7.22944847
_cell_angle_alpha   95.94057685
_cell_angle_beta   98.14995395
_cell_angle_gamma   90.13902782
_symmetry_Int_Tables_number   1
_chemical_formula_structural   SrNb5H17
_chemical_formula_sum   'Sr1 Nb5 H17'
_cell_volume   189.27103970
_cell_formula_units_Z   1
loop_
 _symmetry_equiv_pos_site_id
 _symmetry_equiv_pos_as_xyz
  1  'x, y, z'
loop_
 _atom_site_type_symbol
 _atom_site_label
 _atom_site_symmetry_multiplicity
 _atom_site_fract_x
 _atom_site_fract_y
 _atom_site_fract_z
 _atom_site_occupancy
  Nb  Nb0  1  0.65958600  0.91091700  0.85681900  1
  H  H1  1  0.96110500  0.94861300  0.93001900  1
  Nb  Nb2  1  0.40785600  0.27262700  0.51729900  1
  H  H3  1  0.55847500  0.05616500  0.64323800  1
  H  H4  1  0.53046300  0.49989000  0.40761200  1
  H  H5  1  0.55019700  0.46090300  0.74737200  1
  H  H6  1  0.55847500  0.55616500  0.64323800  1
  Nb  Nb7  1  0.40785600  0.77262700  0.51729900  1
  H  H8  1  0.53046300  0.99989000  0.40761200  1
  Nb  Nb9  1  0.81720700  0.44888600  0.23707500  1
  H  H10  1  0.61031800  0.67471300  0.14410300  1
  Nb  Nb11  1  0.81720700  0.94888600  0.23707500  1
  H  H12  1  0.61031800  0.17471300  0.14410300  1
  H  H13  1  0.78086800  0.46962100  0.97797700  1
  H  H14  1  0.11157000  0.20972000  0.27448100  1
  H  H15  1  0.28695900  0.42099600  0.12907100  1
  H  H16  1  0.11157000  0.70972000  0.27448100  1
  H  H17  1  0.28695900  0.92099600  0.12907100  1
  H  H18  1  0.09160000  0.01710600  0.48638100  1
  H  H19  1  0.94708900  0.80047000  0.62216500  1
  Sr  Sr20  1  0.14757100  0.44148300  0.76971000  1
  H  H21  1  0.94708900  0.30047000  0.62216500  1
  H  H22  1  0.09160000  0.51710600  0.48638100  1
