# generated using pymatgen
data_Sr2NbH9
_symmetry_space_group_name_H-M   'P 1'
_cell_length_a   3.90520000
_cell_length_b   6.07469577
_cell_length_c   6.11529536
_cell_angle_alpha   86.18361194
_cell_angle_beta   89.79272345
_cell_angle_gamma   89.85755022
_symmetry_Int_Tables_number   1
_chemical_formula_structural   Sr2NbH9
_chemical_formula_sum   'Sr2 Nb1 H9'
_cell_volume   144.74953595
_cell_formula_units_Z   1
loop_
 _symmetry_equiv_pos_site_id
 _symmetry_equiv_pos_as_xyz
  1  'x, y, z'
loop_
 _atom_site_type_symbol
 _atom_site_label
 _atom_site_symmetry_multiplicity
 _atom_site_fract_x
 _atom_site_fract_y
 _atom_site_fract_z
 _atom_site_occupancy
  H  H0  1  0.53324400  0.87613200  0.84429600  1
  H  H1  1  0.52973100  0.84121800  0.97532600  1
  H  H2  1  0.53876900  0.04876000  0.48052300  1
  H  H3  1  0.26180800  0.93054500  0.27697400  1
  H  H4  1  0.75277700  0.91218700  0.25186200  1
  H  H5  1  0.53751300  0.74080100  0.54460900  1
  H  H6  1  0.54249400  0.27766900  0.24196700  1
  H  H7  1  0.54318700  0.30696200  0.66971300  1
  H  H8  1  0.04476300  0.01539000  0.59644200  1
  Sr  Sr9  1  0.04086700  0.56080100  0.41736000  1
  Sr  Sr10  1  0.03770500  0.16026700  0.97559800  1
  Nb  Nb11  1  0.04501500  0.55938200  0.00500400  1
