# generated using pymatgen
data_Sr3NbH17
_symmetry_space_group_name_H-M   'P 1'
_cell_length_a   5.51925200
_cell_length_b   6.03867549
_cell_length_c   6.24241098
_cell_angle_alpha   82.64890215
_cell_angle_beta   75.06871731
_cell_angle_gamma   85.48668510
_symmetry_Int_Tables_number   1
_chemical_formula_structural   Sr3NbH17
_chemical_formula_sum   'Sr3 Nb1 H17'
_cell_volume   199.14895696
_cell_formula_units_Z   1
loop_
 _symmetry_equiv_pos_site_id
 _symmetry_equiv_pos_as_xyz
  1  'x, y, z'
loop_
 _atom_site_type_symbol
 _atom_site_label
 _atom_site_symmetry_multiplicity
 _atom_site_fract_x
 _atom_site_fract_y
 _atom_site_fract_z
 _atom_site_occupancy
  Sr  Sr0  1  0.56565800  0.58320600  0.96108700  1
  H  H1  1  0.35246500  0.64814000  0.22995800  1
  H  H2  1  0.56287900  0.36331900  0.76643200  1
  H  H3  1  0.89267800  0.91137300  0.48526600  1
  H  H4  1  0.09922300  0.89966300  0.23356800  1
  H  H5  1  0.96444700  0.66395600  0.18134500  1
  H  H6  1  0.48049400  0.72480500  0.61991500  1
  H  H7  1  0.52177100  0.90813400  0.73953300  1
  Sr  Sr8  1  0.57906100  0.55900000  0.45964200  1
  Nb  Nb9  1  0.46736000  0.99518500  0.50000200  1
  H  H10  1  0.33573900  0.13642600  0.65218900  1
  H  H11  1  0.32611500  0.12680100  0.34780500  1
  H  H12  1  0.55441200  0.94077000  0.26046200  1
  H  H13  1  0.19244900  0.84045800  0.72802900  1
  Sr  Sr14  1  0.45136000  0.01118100  0.00000200  1
  H  H15  1  0.95621200  0.34271900  0.15979500  1
  H  H16  1  0.09653400  0.35895600  0.25822600  1
  H  H17  1  0.94868900  0.31781900  0.55033900  1
  H  H18  1  0.10358800  0.36600600  0.74177800  1
  H  H19  1  0.96704400  0.64119900  0.68115300  1
  H  H20  1  0.87305200  0.94972700  0.01206100  1
