# generated using pymatgen
data_Sr2NbH7
_symmetry_space_group_name_H-M   'P 1'
_cell_length_a   5.18100900
_cell_length_b   5.27063952
_cell_length_c   8.73010521
_cell_angle_alpha   81.36744830
_cell_angle_beta   82.74400117
_cell_angle_gamma   73.67392639
_symmetry_Int_Tables_number   1
_chemical_formula_structural   Sr2NbH7
_chemical_formula_sum   'Sr2 Nb1 H7'
_cell_volume   225.29997932
_cell_formula_units_Z   1
loop_
 _symmetry_equiv_pos_site_id
 _symmetry_equiv_pos_as_xyz
  1  'x, y, z'
loop_
 _atom_site_type_symbol
 _atom_site_label
 _atom_site_symmetry_multiplicity
 _atom_site_fract_x
 _atom_site_fract_y
 _atom_site_fract_z
 _atom_site_occupancy
  H  H0  1  0.19892900  0.30184500  0.91124600  1
  H  H1  1  0.12645100  0.14495200  0.97374400  1
  H  H2  1  0.96388100  0.01372600  0.11905300  1
  H  H3  1  0.19183400  0.40952000  0.52302600  1
  Sr  Sr4  1  0.21367000  0.17195700  0.65291400  1
  H  H5  1  0.57375000  0.05464000  0.73097000  1
  Sr  Sr6  1  0.82507600  0.08716100  0.84866700  1
  H  H7  1  0.88006800  0.68729400  0.41773700  1
  Nb  Nb8  1  0.75400800  0.36994600  0.65253500  1
  H  H9  1  0.29381400  0.16308400  0.20135300  1
