# generated using pymatgen
data_SrNbH10
_symmetry_space_group_name_H-M   'P 1'
_cell_length_a   3.90260500
_cell_length_b   4.82662021
_cell_length_c   5.83708610
_cell_angle_alpha   74.20377407
_cell_angle_beta   82.64902323
_cell_angle_gamma   89.98294168
_symmetry_Int_Tables_number   1
_chemical_formula_structural   SrNbH10
_chemical_formula_sum   'Sr1 Nb1 H10'
_cell_volume   104.85923330
_cell_formula_units_Z   1
loop_
 _symmetry_equiv_pos_site_id
 _symmetry_equiv_pos_as_xyz
  1  'x, y, z'
loop_
 _atom_site_type_symbol
 _atom_site_label
 _atom_site_symmetry_multiplicity
 _atom_site_fract_x
 _atom_site_fract_y
 _atom_site_fract_z
 _atom_site_occupancy
  H  H0  1  0.70943300  0.43950800  0.81418900  1
  H  H1  1  0.66474100  0.39765500  0.63255900  1
  H  H2  1  0.70943300  0.93950800  0.81418900  1
  H  H3  1  0.67278900  0.87176800  0.63876100  1
  H  H4  1  0.18319600  0.43885300  0.81579100  1
  H  H5  1  0.19016800  0.39536000  0.63100000  1
  H  H6  1  0.18319600  0.93885300  0.81579100  1
  H  H7  1  0.17840400  0.87015500  0.63986500  1
  Nb  Nb8  1  0.42673000  0.69643400  0.50966800  1
  H  H9  1  0.67865200  0.80605700  0.27155700  1
  H  H10  1  0.17336700  0.80305600  0.27148200  1
  Sr  Sr11  1  0.92629200  0.25783400  0.37227100  1
