# generated using pymatgen
data_Sr3(NbH9)2
_symmetry_space_group_name_H-M   'P 1'
_cell_length_a   6.00184000
_cell_length_b   6.22951660
_cell_length_c   6.63924179
_cell_angle_alpha   89.70691465
_cell_angle_beta   84.96665634
_cell_angle_gamma   80.23118139
_symmetry_Int_Tables_number   1
_chemical_formula_structural   Sr3(NbH9)2
_chemical_formula_sum   'Sr3 Nb2 H18'
_cell_volume   243.67701777
_cell_formula_units_Z   1
loop_
 _symmetry_equiv_pos_site_id
 _symmetry_equiv_pos_as_xyz
  1  'x, y, z'
loop_
 _atom_site_type_symbol
 _atom_site_label
 _atom_site_symmetry_multiplicity
 _atom_site_fract_x
 _atom_site_fract_y
 _atom_site_fract_z
 _atom_site_occupancy
  Sr  Sr0  1  0.38923300  0.96028500  0.45287000  1
  H  H1  1  0.36601900  0.18720500  0.63221200  1
  Nb  Nb2  1  0.77805300  0.84328500  0.30024000  1
  H  H3  1  0.79172700  0.63473600  0.43497400  1
  H  H4  1  0.53162600  0.64939200  0.32763300  1
  H  H5  1  0.93392400  0.52615600  0.64941200  1
  H  H6  1  0.83258800  0.76519600  0.02651400  1
  H  H7  1  0.51128200  0.68724600  0.80282000  1
  H  H8  1  0.36518800  0.51854900  0.71629100  1
  Nb  Nb9  1  0.37706200  0.45924400  0.98740500  1
  H  H10  1  0.34512200  0.67257100  0.08857400  1
  H  H11  1  0.10441700  0.42481800  0.02237900  1
  H  H12  1  0.15898900  0.73514600  0.90743000  1
  H  H13  1  0.19807000  0.36884200  0.27233600  1
  Sr  Sr14  1  0.15929600  0.59796300  0.44716300  1
  H  H15  1  0.59577800  0.32573100  0.16190000  1
  H  H16  1  0.80037000  0.33883900  0.10663900  1
  H  H17  1  0.06048500  0.00444200  0.33926500  1
  H  H18  1  0.85207700  0.14118200  0.27889800  1
  H  H19  1  0.42080700  0.13832800  0.05257200  1
  H  H20  1  0.95725300  0.00982300  0.62787100  1
  H  H21  1  0.66575300  0.31471300  0.84106300  1
  Sr  Sr22  1  0.04931500  0.12079500  0.96958600  1
