# generated using pymatgen
data_SrNbH10
_symmetry_space_group_name_H-M   'P 1'
_cell_length_a   3.43195700
_cell_length_b   5.52340661
_cell_length_c   5.93437204
_cell_angle_alpha   103.40680009
_cell_angle_beta   106.02272462
_cell_angle_gamma   90.48710343
_symmetry_Int_Tables_number   1
_chemical_formula_structural   SrNbH10
_chemical_formula_sum   'Sr1 Nb1 H10'
_cell_volume   104.85923708
_cell_formula_units_Z   1
loop_
 _symmetry_equiv_pos_site_id
 _symmetry_equiv_pos_as_xyz
  1  'x, y, z'
loop_
 _atom_site_type_symbol
 _atom_site_label
 _atom_site_symmetry_multiplicity
 _atom_site_fract_x
 _atom_site_fract_y
 _atom_site_fract_z
 _atom_site_occupancy
  H  H0  1  0.14807600  0.30034900  0.15464900  1
  H  H1  1  0.10404100  0.18011300  0.05132100  1
  H  H2  1  0.43113200  0.53326900  0.00173100  1
  H  H3  1  0.66926000  0.52896500  0.99934500  1
  Sr  Sr4  1  0.41025000  0.67934000  0.70958100  1
  H  H5  1  0.55650800  0.93185100  0.98408100  1
  H  H6  1  0.40761100  0.00014500  0.67526500  1
  H  H7  1  0.24583900  0.69013400  0.37854800  1
  H  H8  1  0.34950000  0.33564100  0.54407500  1
  H  H9  1  0.93454700  0.85497900  0.72400400  1
  H  H10  1  0.92184200  0.49024800  0.69726400  1
  Nb  Nb11  1  0.77365000  0.05824000  0.39530700  1
