# generated using pymatgen
data_SrNb4H17
_symmetry_space_group_name_H-M   'P 1'
_cell_length_a   4.34881200
_cell_length_b   5.14660030
_cell_length_c   7.78051564
_cell_angle_alpha   89.95149426
_cell_angle_beta   95.77111778
_cell_angle_gamma   89.82035063
_symmetry_Int_Tables_number   1
_chemical_formula_structural   SrNb4H17
_chemical_formula_sum   'Sr1 Nb4 H17'
_cell_volume   173.25677040
_cell_formula_units_Z   1
loop_
 _symmetry_equiv_pos_site_id
 _symmetry_equiv_pos_as_xyz
  1  'x, y, z'
loop_
 _atom_site_type_symbol
 _atom_site_label
 _atom_site_symmetry_multiplicity
 _atom_site_fract_x
 _atom_site_fract_y
 _atom_site_fract_z
 _atom_site_occupancy
  Nb  Nb0  1  0.81720700  0.44888600  0.51488100  1
  H  H1  1  0.61031800  0.67471300  0.42191000  1
  H  H2  1  0.11157000  0.20972000  0.55228800  1
  Nb  Nb3  1  0.81720700  0.94888600  0.51488100  1
  H  H4  1  0.61031800  0.17471300  0.42191000  1
  H  H5  1  0.11157000  0.70972000  0.55228800  1
  H  H6  1  0.28695900  0.42099600  0.40687800  1
  H  H7  1  0.28695900  0.92099600  0.40687800  1
  H  H8  1  0.94708900  0.30047000  0.89997200  1
  Sr  Sr9  1  0.19023800  0.17169200  0.03285300  1
  H  H10  1  0.09160000  0.51710600  0.76418700  1
  Nb  Nb11  1  0.40785600  0.27262700  0.79510600  1
  H  H12  1  0.53046300  0.49989000  0.68541900  1
  H  H13  1  0.55847500  0.05616500  0.92104500  1
  H  H14  1  0.50345500  0.61760200  0.12562400  1
  H  H15  1  0.39714900  0.57668100  0.19981800  1
  H  H16  1  0.94708900  0.80047000  0.89997200  1
  H  H17  1  0.77977000  0.76501900  0.02814400  1
  Nb  Nb18  1  0.40785600  0.77262700  0.79510600  1
  H  H19  1  0.53046300  0.99989000  0.68541900  1
  H  H20  1  0.55847500  0.55616500  0.92104500  1
  H  H21  1  0.09160000  0.01710600  0.76418700  1
