# generated using pymatgen
data_SrNbH11
_symmetry_space_group_name_H-M   'P 1'
_cell_length_a   4.39707600
_cell_length_b   5.32345402
_cell_length_c   5.41108319
_cell_angle_alpha   113.65168444
_cell_angle_beta   97.43284864
_cell_angle_gamma   101.11951467
_symmetry_Int_Tables_number   1
_chemical_formula_structural   SrNbH11
_chemical_formula_sum   'Sr1 Nb1 H11'
_cell_volume   110.79093138
_cell_formula_units_Z   1
loop_
 _symmetry_equiv_pos_site_id
 _symmetry_equiv_pos_as_xyz
  1  'x, y, z'
loop_
 _atom_site_type_symbol
 _atom_site_label
 _atom_site_symmetry_multiplicity
 _atom_site_fract_x
 _atom_site_fract_y
 _atom_site_fract_z
 _atom_site_occupancy
  H  H0  1  0.04983600  0.37163600  0.99575800  1
  H  H1  1  0.89328700  0.25692700  0.84969000  1
  H  H2  1  0.35580900  0.21887500  0.77517600  1
  H  H3  1  0.51857600  0.34964400  0.90768900  1
  H  H4  1  0.01048400  0.72862800  0.84380300  1
  H  H5  1  0.00467100  0.87870300  0.84224100  1
  Nb  Nb6  1  0.61176300  0.54932800  0.61537500  1
  H  H7  1  0.70565900  0.86397100  0.58824000  1
  H  H8  1  0.56981900  0.49479700  0.26930100  1
  H  H9  1  0.57468800  0.84561800  0.89816500  1
  H  H10  1  0.10136800  0.54287700  0.49034500  1
  H  H11  1  0.72538600  0.17732200  0.39594700  1
  Sr  Sr12  1  0.24358300  0.88537600  0.32005600  1
