# generated using pymatgen
data_SrNbH10
_symmetry_space_group_name_H-M   'P 1'
_cell_length_a   3.88864100
_cell_length_b   4.23450815
_cell_length_c   6.46023091
_cell_angle_alpha   82.71930993
_cell_angle_beta   83.60926404
_cell_angle_gamma   89.72394598
_symmetry_Int_Tables_number   1
_chemical_formula_structural   SrNbH10
_chemical_formula_sum   'Sr1 Nb1 H10'
_cell_volume   104.85921748
_cell_formula_units_Z   1
loop_
 _symmetry_equiv_pos_site_id
 _symmetry_equiv_pos_as_xyz
  1  'x, y, z'
loop_
 _atom_site_type_symbol
 _atom_site_label
 _atom_site_symmetry_multiplicity
 _atom_site_fract_x
 _atom_site_fract_y
 _atom_site_fract_z
 _atom_site_occupancy
  H  H0  1  0.18190700  0.89147600  0.79608500  1
  H  H1  1  0.23874900  0.94616700  0.92795800  1
  Nb  Nb2  1  0.23145200  0.32936500  0.84721900  1
  H  H3  1  0.12098300  0.45380000  0.06872800  1
  H  H4  1  0.35154300  0.19657200  0.59304900  1
  H  H5  1  0.72309700  0.06687000  0.86535700  1
  H  H6  1  0.11773300  0.92860900  0.37176200  1
  H  H7  1  0.29679800  0.93168500  0.34993400  1
  H  H8  1  0.96349500  0.07795900  0.34854000  1
  Sr  Sr9  1  0.53662800  0.63655200  0.23445900  1
  H  H10  1  0.89776300  0.50058600  0.50349700  1
  H  H11  1  0.72336800  0.57632100  0.86427500  1
