# generated using pymatgen
data_SrNb5H18
_symmetry_space_group_name_H-M   'P 1'
_cell_length_a   4.68942400
_cell_length_b   6.11789694
_cell_length_c   6.69503032
_cell_angle_alpha   83.95935290
_cell_angle_beta   81.08968941
_cell_angle_gamma   74.76017145
_symmetry_Int_Tables_number   1
_chemical_formula_structural   SrNb5H18
_chemical_formula_sum   'Sr1 Nb5 H18'
_cell_volume   182.66555707
_cell_formula_units_Z   1
loop_
 _symmetry_equiv_pos_site_id
 _symmetry_equiv_pos_as_xyz
  1  'x, y, z'
loop_
 _atom_site_type_symbol
 _atom_site_label
 _atom_site_symmetry_multiplicity
 _atom_site_fract_x
 _atom_site_fract_y
 _atom_site_fract_z
 _atom_site_occupancy
  H  H0  1  0.75269400  0.35765200  0.37630200  1
  H  H1  1  0.71304100  0.26051800  0.36591100  1
  H  H2  1  0.88843000  0.04924100  0.22050100  1
  H  H3  1  0.75268000  0.35756100  0.87100300  1
  H  H4  1  0.05291100  0.13999200  0.87281700  1
  H  H5  1  0.24733700  0.35761600  0.37627100  1
  Nb  Nb6  1  0.18279300  0.28840700  0.25790700  1
  H  H7  1  0.27901100  0.22615800  0.50246900  1
  H  H8  1  0.24733800  0.86294500  0.37637000  1
  H  H9  1  0.38968200  0.01423500  0.35087900  1
  Nb  Nb10  1  1.00000000  0.73395000  0.50000000  1
  H  H11  1  0.27500300  0.59652200  0.58745700  1
  H  H12  1  0.72499700  0.87137800  0.41254300  1
  Nb  Nb13  1  0.50000000  0.73395000  0.50000000  1
  H  H14  1  0.75266200  0.60495500  0.62363000  1
  Nb  Nb15  1  0.59214400  0.11214900  0.97768300  1
  H  H16  1  0.46953700  0.33941200  0.08737000  1
  Nb  Nb17  1  0.50000000  0.73395000  1.00000000  1
  H  H18  1  0.27504800  0.87147300  0.86240200  1
  H  H19  1  0.72495200  0.59642600  0.13759800  1
  H  H20  1  0.72499200  0.87152100  0.86244900  1
  H  H21  1  0.27500800  0.59637900  0.13755100  1
  Sr  Sr22  1  0.00000000  0.73395000  1.00000000  1
  H  H23  1  0.49874600  0.17426900  0.73460200  1
