# generated using pymatgen
data_SrNbH9
_symmetry_space_group_name_H-M   'P 1'
_cell_length_a   3.33585700
_cell_length_b   5.17433031
_cell_length_c   5.97986452
_cell_angle_alpha   75.05442955
_cell_angle_beta   86.07290009
_cell_angle_gamma   87.32926879
_symmetry_Int_Tables_number   1
_chemical_formula_structural   SrNbH9
_chemical_formula_sum   'Sr1 Nb1 H9'
_cell_volume   99.44669897
_cell_formula_units_Z   1
loop_
 _symmetry_equiv_pos_site_id
 _symmetry_equiv_pos_as_xyz
  1  'x, y, z'
loop_
 _atom_site_type_symbol
 _atom_site_label
 _atom_site_symmetry_multiplicity
 _atom_site_fract_x
 _atom_site_fract_y
 _atom_site_fract_z
 _atom_site_occupancy
  H  H0  1  0.01050800  0.09207400  0.94829900  1
  H  H1  1  0.01007200  0.23042500  0.84644900  1
  H  H2  1  0.74130300  0.06772400  0.03294000  1
  Nb  Nb3  1  0.01104500  0.75536000  0.58967800  1
  H  H4  1  0.01124400  0.45676800  0.47422300  1
  H  H5  1  0.01107000  0.04913400  0.32565600  1
  H  H6  1  0.51052700  0.95791300  0.65351700  1
  H  H7  1  0.51103300  0.54082700  0.71335700  1
  Sr  Sr8  1  0.51089300  0.36807900  0.17784600  1
  H  H9  1  0.01018900  0.67767100  0.94585800  1
  H  H10  1  0.51126300  0.77132800  0.36376900  1
