# generated using pymatgen
data_Sr2NbH12
_symmetry_space_group_name_H-M   'P 1'
_cell_length_a   4.41821800
_cell_length_b   5.58806129
_cell_length_c   7.05154373
_cell_angle_alpha   91.62343478
_cell_angle_beta   95.04914750
_cell_angle_gamma   109.59877086
_symmetry_Int_Tables_number   1
_chemical_formula_structural   Sr2NbH12
_chemical_formula_sum   'Sr2 Nb1 H12'
_cell_volume   163.06390024
_cell_formula_units_Z   1
loop_
 _symmetry_equiv_pos_site_id
 _symmetry_equiv_pos_as_xyz
  1  'x, y, z'
loop_
 _atom_site_type_symbol
 _atom_site_label
 _atom_site_symmetry_multiplicity
 _atom_site_fract_x
 _atom_site_fract_y
 _atom_site_fract_z
 _atom_site_occupancy
  Sr  Sr0  1  0.87497500  0.63342000  0.62528200  1
  H  H1  1  0.86942500  0.29580300  0.57936800  1
  H  H2  1  0.98227600  0.43628500  0.17586700  1
  H  H3  1  0.06115400  0.48173100  0.15099100  1
  H  H4  1  0.72420300  0.53215800  0.06562400  1
  H  H5  1  0.54404800  0.46679100  0.08548600  1
  H  H6  1  0.58315000  0.20970900  0.85958900  1
  H  H7  1  0.63087100  0.17635500  0.93211200  1
  H  H8  1  0.43402400  0.36908200  0.90762800  1
  Sr  Sr9  1  0.21187800  0.07718700  0.89467600  1
  H  H10  1  0.34129300  0.77357300  0.70327700  1
  H  H11  1  0.49228600  0.68344900  0.70491800  1
  H  H12  1  0.53093000  0.84204400  0.92247900  1
  H  H13  1  0.45595700  0.70283100  0.43569800  1
  Nb  Nb14  1  0.70601500  0.07980000  0.29290000  1
