# generated using pymatgen
data_Sr(NbH5)3
_symmetry_space_group_name_H-M   'P 1'
_cell_length_a   4.61894400
_cell_length_b   5.74206591
_cell_length_c   5.84340220
_cell_angle_alpha   88.67879021
_cell_angle_beta   69.91041799
_cell_angle_gamma   85.07990592
_symmetry_Int_Tables_number   1
_chemical_formula_structural   Sr(NbH5)3
_chemical_formula_sum   'Sr1 Nb3 H15'
_cell_volume   145.01113307
_cell_formula_units_Z   1
loop_
 _symmetry_equiv_pos_site_id
 _symmetry_equiv_pos_as_xyz
  1  'x, y, z'
loop_
 _atom_site_type_symbol
 _atom_site_label
 _atom_site_symmetry_multiplicity
 _atom_site_fract_x
 _atom_site_fract_y
 _atom_site_fract_z
 _atom_site_occupancy
  Sr  Sr0  1  0.02797600  0.52578000  0.33229100  1
  H  H1  1  0.96202500  0.51564800  0.63207100  1
  H  H2  1  0.93129900  0.26160900  0.48880900  1
  Nb  Nb3  1  0.58375500  0.28076700  0.19733200  1
  H  H4  1  0.70180900  0.27500600  0.89026200  1
  H  H5  1  0.23891300  0.26015200  0.15771200  1
  H  H6  1  0.46061700  0.99908000  0.23776000  1
  H  H7  1  0.64841100  0.08424300  0.42397800  1
  H  H8  1  0.05358700  0.99075100  0.31869400  1
  Nb  Nb9  1  0.28257500  0.93144100  0.03179400  1
  H  H10  1  0.12392600  0.98621300  0.58541800  1
  H  H11  1  0.25786900  0.74180000  0.37832400  1
  H  H12  1  0.60153800  0.49160800  0.40408400  1
  H  H13  1  0.95342900  0.76814200  0.16393400  1
  H  H14  1  0.91412500  0.08388800  0.07336600  1
  H  H15  1  0.83134700  0.78192200  0.51141300  1
  H  H16  1  0.90135600  0.45259200  0.07846300  1
  H  H17  1  0.41079600  0.54346700  0.11870500  1
  Nb  Nb18  1  0.27250600  0.26065400  0.75799500  1
