# generated using pymatgen
data_Sr2NbH14
_symmetry_space_group_name_H-M   'P 1'
_cell_length_a   5.30338500
_cell_length_b   5.85934076
_cell_length_c   6.48734330
_cell_angle_alpha   72.24158508
_cell_angle_beta   65.88415939
_cell_angle_gamma   81.75056488
_symmetry_Int_Tables_number   1
_chemical_formula_structural   Sr2NbH14
_chemical_formula_sum   'Sr2 Nb1 H14'
_cell_volume   175.18693550
_cell_formula_units_Z   1
loop_
 _symmetry_equiv_pos_site_id
 _symmetry_equiv_pos_as_xyz
  1  'x, y, z'
loop_
 _atom_site_type_symbol
 _atom_site_label
 _atom_site_symmetry_multiplicity
 _atom_site_fract_x
 _atom_site_fract_y
 _atom_site_fract_z
 _atom_site_occupancy
  H  H0  1  0.08827300  0.01011400  0.02259600  1
  H  H1  1  0.86327000  0.31963800  0.03442500  1
  H  H2  1  0.46882100  0.87366800  0.42919400  1
  H  H3  1  0.65935000  0.98276000  0.08752100  1
  H  H4  1  0.83542000  0.71323500  0.25426200  1
  Nb  Nb5  1  0.10158100  0.48229200  0.36402700  1
  H  H6  1  0.24131400  0.49846300  0.57636800  1
  H  H7  1  0.82475400  0.55461800  0.62367000  1
  H  H8  1  0.01741800  0.22082700  0.62536200  1
  H  H9  1  0.77070200  0.35439900  0.42075100  1
  H  H10  1  0.13786900  0.20615800  0.25589200  1
  H  H11  1  0.30812300  0.60094700  0.02157200  1
  H  H12  1  0.45707000  0.29025600  0.31840400  1
  H  H13  1  0.09839500  0.83810000  0.35439100  1
  H  H14  1  0.64179400  0.95624200  0.63282400  1
  Sr  Sr15  1  0.47034600  0.26980300  0.84278800  1
  Sr  Sr16  1  0.02046400  0.79633300  0.78238200  1
