# generated using pymatgen
data_SrNb2H7
_symmetry_space_group_name_H-M   'P 1'
_cell_length_a   4.95169400
_cell_length_b   5.91999128
_cell_length_c   7.07654062
_cell_angle_alpha   83.54417838
_cell_angle_beta   72.80471263
_cell_angle_gamma   72.29953337
_symmetry_Int_Tables_number   1
_chemical_formula_structural   SrNb2H7
_chemical_formula_sum   'Sr1 Nb2 H7'
_cell_volume   188.73000030
_cell_formula_units_Z   1
loop_
 _symmetry_equiv_pos_site_id
 _symmetry_equiv_pos_as_xyz
  1  'x, y, z'
loop_
 _atom_site_type_symbol
 _atom_site_label
 _atom_site_symmetry_multiplicity
 _atom_site_fract_x
 _atom_site_fract_y
 _atom_site_fract_z
 _atom_site_occupancy
  H  H0  1  0.41384600  0.87564700  0.60086900  1
  Sr  Sr1  1  0.69528800  0.69027100  0.74796400  1
  H  H2  1  0.13128100  0.96567000  0.43836500  1
  H  H3  1  0.48883900  0.90020800  0.19799600  1
  H  H4  1  0.68555800  0.89580900  0.21817900  1
  H  H5  1  0.62246100  0.68653300  0.27943300  1
  Nb  Nb6  1  0.79699200  0.09023000  0.17391900  1
  H  H7  1  0.97657200  0.51764900  0.13042400  1
  Nb  Nb8  1  0.30869000  0.20463500  0.10886900  1
  H  H9  1  0.34903700  0.15758000  0.82573800  1
