# generated using pymatgen
data_Sr2NbH9
_symmetry_space_group_name_H-M   'P 1'
_cell_length_a   3.77966600
_cell_length_b   5.57898485
_cell_length_c   6.91631070
_cell_angle_alpha   87.77534425
_cell_angle_beta   83.80335064
_cell_angle_gamma   89.50660596
_symmetry_Int_Tables_number   1
_chemical_formula_structural   Sr2NbH9
_chemical_formula_sum   'Sr2 Nb1 H9'
_cell_volume   144.87933617
_cell_formula_units_Z   1
loop_
 _symmetry_equiv_pos_site_id
 _symmetry_equiv_pos_as_xyz
  1  'x, y, z'
loop_
 _atom_site_type_symbol
 _atom_site_label
 _atom_site_symmetry_multiplicity
 _atom_site_fract_x
 _atom_site_fract_y
 _atom_site_fract_z
 _atom_site_occupancy
  H  H0  1  0.66099000  0.42696200  0.05916300  1
  H  H1  1  0.48090100  0.41296600  0.12494900  1
  Sr  Sr2  1  0.03770500  0.63147700  0.97559800  1
  Nb  Nb3  1  0.18671700  0.50185300  0.65053300  1
  H  H4  1  0.23498100  0.48355200  0.40248000  1
  H  H5  1  0.10427700  0.28472900  0.84176500  1
  H  H6  1  0.23915400  0.16728200  0.57897500  1
  H  H7  1  0.67980200  0.38477700  0.67473700  1
  H  H8  1  0.54318700  0.77817200  0.66971300  1
  H  H9  1  0.54249400  0.74887900  0.24196700  1
  Sr  Sr10  1  0.82830800  0.07308400  0.39777100  1
  H  H11  1  0.99338200  0.01793000  0.09567800  1
