# generated using pymatgen
data_Sr(NbH4)4
_symmetry_space_group_name_H-M   'P 1'
_cell_length_a   5.16957100
_cell_length_b   5.94999206
_cell_length_c   5.36789063
_cell_angle_alpha   91.37670505
_cell_angle_beta   90.20756313
_cell_angle_gamma   76.96246196
_symmetry_Int_Tables_number   1
_chemical_formula_structural   Sr(NbH4)4
_chemical_formula_sum   'Sr1 Nb4 H16'
_cell_volume   160.80760115
_cell_formula_units_Z   1
loop_
 _symmetry_equiv_pos_site_id
 _symmetry_equiv_pos_as_xyz
  1  'x, y, z'
loop_
 _atom_site_type_symbol
 _atom_site_label
 _atom_site_symmetry_multiplicity
 _atom_site_fract_x
 _atom_site_fract_y
 _atom_site_fract_z
 _atom_site_occupancy
  Nb  Nb0  1  0.19732600  0.69165200  0.03043600  1
  H  H1  1  0.40417200  0.56652900  0.88273700  1
  H  H2  1  0.01850000  0.82470000  0.20459400  1
  Sr  Sr3  1  0.71645100  0.66772500  0.00314300  1
  H  H4  1  0.44478800  0.81618300  0.16011800  1
  H  H5  1  0.48335000  0.32031300  0.17877500  1
  H  H6  1  0.65247000  0.17030200  0.11589900  1
  H  H7  1  0.28226000  0.18030500  0.03124000  1
  H  H8  1  0.47666500  0.26323100  0.67358200  1
  Nb  Nb9  1  0.66368100  0.13986700  0.79057400  1
  H  H10  1  0.82324900  0.93686000  0.85158800  1
  H  H11  1  0.52536500  0.04615500  0.54344500  1
  Nb  Nb12  1  0.22180300  0.64532900  0.54293100  1
  H  H13  1  0.45544000  0.54466700  0.40728300  1
  H  H14  1  0.97835300  0.76429100  0.66950700  1
  Nb  Nb15  1  0.70824900  0.66329700  0.50422900  1
  H  H16  1  0.96757000  0.56340100  0.40295600  1
  H  H17  1  0.44557300  0.79923600  0.59928900  1
  H  H18  1  0.82416700  0.36851700  0.40066000  1
  H  H19  1  0.97731900  0.19041700  0.82699500  1
  H  H20  1  0.99129200  0.03173900  0.51514800  1
