# generated using pymatgen
data_Sr2NbH9
_symmetry_space_group_name_H-M   'P 1'
_cell_length_a   5.81426100
_cell_length_b   6.96378807
_cell_length_c   7.74397700
_cell_angle_alpha   72.66116932
_cell_angle_beta   89.50115492
_cell_angle_gamma   76.02185764
_symmetry_Int_Tables_number   1
_chemical_formula_structural   Sr2NbH9
_chemical_formula_sum   'Sr4 Nb2 H18'
_cell_volume   289.75869332
_cell_formula_units_Z   2
loop_
 _symmetry_equiv_pos_site_id
 _symmetry_equiv_pos_as_xyz
  1  'x, y, z'
loop_
 _atom_site_type_symbol
 _atom_site_label
 _atom_site_symmetry_multiplicity
 _atom_site_fract_x
 _atom_site_fract_y
 _atom_site_fract_z
 _atom_site_occupancy
  H  H0  1  0.78592500  0.00005700  0.15979500  1
  H  H1  1  0.63905600  0.15158900  0.17701300  1
  Sr  Sr2  1  0.97983200  0.98693800  0.95597800  1
  H  H3  1  0.79344700  0.02495600  0.55033900  1
  H  H4  1  0.60839600  0.99122200  0.59802200  1
  Sr  Sr5  1  0.99537500  0.98093400  0.44916100  1
  H  H6  1  0.69912500  0.26549400  0.61514700  1
  H  H7  1  0.35879000  0.00327800  0.85916700  1
  H  H8  1  0.56590400  0.96096800  0.87620100  1
  H  H9  1  0.25599100  0.98308400  0.70147100  1
  H  H10  1  0.17769200  0.25897200  0.87955500  1
  Nb  Nb11  1  0.37821900  0.23176200  0.65855600  1
  H  H12  1  0.48436000  0.31204500  0.86856500  1
  Nb  Nb13  1  0.26738700  0.34186900  0.10072700  1
  H  H14  1  0.40496200  0.58065900  0.03554400  1
  H  H15  1  0.93383700  0.33011700  0.11282800  1
  H  H16  1  0.28137400  0.26139800  0.38338500  1
  H  H17  1  0.01356200  0.37488900  0.59026700  1
  H  H18  1  0.06468000  0.59524900  0.17787000  1
  H  H19  1  0.75015100  0.76630000  0.46312700  1
  H  H20  1  0.07018900  0.61463000  0.88913600  1
  H  H21  1  0.32858100  0.57006500  0.54980000  1
  Sr  Sr22  1  0.65031600  0.58617700  0.28971100  1
  Sr  Sr23  1  0.67471100  0.59761800  0.77081200  1
