# generated using pymatgen
data_SrNbH5
_symmetry_space_group_name_H-M   'P 1'
_cell_length_a   4.66157000
_cell_length_b   5.71969965
_cell_length_c   5.93431083
_cell_angle_alpha   96.65223018
_cell_angle_beta   96.34957595
_cell_angle_gamma   104.68949667
_symmetry_Int_Tables_number   1
_chemical_formula_structural   SrNbH5
_chemical_formula_sum   'Sr2 Nb2 H10'
_cell_volume   150.40127367
_cell_formula_units_Z   2
loop_
 _symmetry_equiv_pos_site_id
 _symmetry_equiv_pos_as_xyz
  1  'x, y, z'
loop_
 _atom_site_type_symbol
 _atom_site_label
 _atom_site_symmetry_multiplicity
 _atom_site_fract_x
 _atom_site_fract_y
 _atom_site_fract_z
 _atom_site_occupancy
  H  H0  1  0.24583900  0.96363500  0.62145200  1
  Sr  Sr1  1  0.99756000  0.10184800  0.72342200  1
  H  H2  1  0.73920600  0.16939000  0.92014100  1
  H  H3  1  0.48587300  0.30597800  0.41827000  1
  H  H4  1  0.56711200  0.41001300  0.55349000  1
  Nb  Nb5  1  0.41025000  0.97442900  0.29041900  1
  H  H6  1  0.42021200  0.06409300  0.12303500  1
  H  H7  1  0.51656600  0.75828200  0.28581700  1
  Nb  Nb8  1  0.50391700  0.84505400  0.97814000  1
  H  H9  1  0.50541600  0.70869500  0.68747100  1
  H  H10  1  0.51033700  0.53405400  0.00923500  1
  H  H11  1  0.94257200  0.00751800  0.24439500  1
  Sr  Sr12  1  0.02288900  0.61329900  0.23904600  1
  H  H13  1  0.07513600  0.56096700  0.83446000  1
