# generated using pymatgen
data_Sr2NbH8
_symmetry_space_group_name_H-M   'P 1'
_cell_length_a   4.43649800
_cell_length_b   5.31598020
_cell_length_c   6.20181451
_cell_angle_alpha   89.98904592
_cell_angle_beta   108.36238517
_cell_angle_gamma   89.86297881
_symmetry_Int_Tables_number   1
_chemical_formula_structural   Sr2NbH8
_chemical_formula_sum   'Sr2 Nb1 H8'
_cell_volume   138.81780385
_cell_formula_units_Z   1
loop_
 _symmetry_equiv_pos_site_id
 _symmetry_equiv_pos_as_xyz
  1  'x, y, z'
loop_
 _atom_site_type_symbol
 _atom_site_label
 _atom_site_symmetry_multiplicity
 _atom_site_fract_x
 _atom_site_fract_y
 _atom_site_fract_z
 _atom_site_occupancy
  H  H0  1  0.09344200  0.92760600  0.70188800  1
  H  H1  1  0.24123100  0.92329400  0.80726200  1
  Nb  Nb2  1  0.69643400  0.42673000  0.18606100  1
  H  H3  1  0.55571100  0.42569200  0.87797600  1
  H  H4  1  0.39536000  0.19016800  0.06473000  1
  H  H5  1  0.87176800  0.67278900  0.05696800  1
  H  H6  1  0.87015500  0.17840400  0.05586500  1
  H  H7  1  0.80605700  0.67865200  0.42417200  1
  H  H8  1  0.80305600  0.17336700  0.42424700  1
  Sr  Sr9  1  0.00841800  0.42661600  0.77312800  1
  Sr  Sr10  1  0.25783400  0.92629200  0.32345800  1
