# generated using pymatgen
data_SrNbH12
_symmetry_space_group_name_H-M   'P 1'
_cell_length_a   3.92849800
_cell_length_b   5.39101229
_cell_length_c   5.85214157
_cell_angle_alpha   71.85946022
_cell_angle_beta   87.15308313
_cell_angle_gamma   89.50487696
_symmetry_Int_Tables_number   1
_chemical_formula_structural   SrNbH12
_chemical_formula_sum   'Sr1 Nb1 H12'
_cell_volume   117.63129462
_cell_formula_units_Z   1
loop_
 _symmetry_equiv_pos_site_id
 _symmetry_equiv_pos_as_xyz
  1  'x, y, z'
loop_
 _atom_site_type_symbol
 _atom_site_label
 _atom_site_symmetry_multiplicity
 _atom_site_fract_x
 _atom_site_fract_y
 _atom_site_fract_z
 _atom_site_occupancy
  H  H0  1  0.28169600  0.06488100  0.74947300  1
  H  H1  1  0.47022600  0.11652900  0.67000900  1
  H  H2  1  0.83315200  0.85188400  0.06176100  1
  H  H3  1  0.67246100  0.92555800  0.93495100  1
  H  H4  1  0.83606000  0.03830000  0.05569200  1
  H  H5  1  0.79083400  0.48165500  0.91126700  1
  H  H6  1  0.60534200  0.40508600  0.99830700  1
  H  H7  1  0.83357200  0.63784300  0.76800600  1
  Nb  Nb8  1  0.84409100  0.41520000  0.11023700  1
  H  H9  1  0.84036500  0.45559700  0.40066700  1
  H  H10  1  0.32336700  0.65687400  0.04456700  1
  H  H11  1  0.31887000  0.28791300  0.30212300  1
  H  H12  1  0.83206800  0.06979100  0.38900800  1
  Sr  Sr13  1  0.33481500  0.72952500  0.47930500  1
