# generated using pymatgen
data_Sr2NbH12
_symmetry_space_group_name_H-M   'P 1'
_cell_length_a   3.84844400
_cell_length_b   5.36987307
_cell_length_c   8.07361239
_cell_angle_alpha   89.36708650
_cell_angle_beta   77.81397997
_cell_angle_gamma   89.15565296
_symmetry_Int_Tables_number   1
_chemical_formula_structural   Sr2NbH12
_chemical_formula_sum   'Sr2 Nb1 H12'
_cell_volume   163.06393044
_cell_formula_units_Z   1
loop_
 _symmetry_equiv_pos_site_id
 _symmetry_equiv_pos_as_xyz
  1  'x, y, z'
loop_
 _atom_site_type_symbol
 _atom_site_label
 _atom_site_symmetry_multiplicity
 _atom_site_fract_x
 _atom_site_fract_y
 _atom_site_fract_z
 _atom_site_occupancy
  H  H0  1  0.66099000  0.16364000  0.05916300  1
  H  H1  1  0.48090100  0.14964400  0.12494900  1
  H  H2  1  0.38239800  0.49654500  0.30500100  1
  H  H3  1  0.42331900  0.60285100  0.23080700  1
  H  H4  1  0.23498100  0.22023000  0.40248000  1
  Sr  Sr5  1  0.18671700  0.23853100  0.65053300  1
  H  H6  1  0.94717800  0.52601300  0.61096200  1
  H  H7  1  0.44761300  0.52739200  0.59636500  1
  H  H8  1  0.23915400  0.90396000  0.57897500  1
  H  H9  1  0.10427700  0.02140700  0.84176500  1
  H  H10  1  0.10001300  0.42024000  0.86074900  1
  H  H11  1  0.67980200  0.12145500  0.67473700  1
  H  H12  1  0.99338200  0.75460800  0.09567800  1
  Nb  Nb13  1  0.82830800  0.80976200  0.39777100  1
  Sr  Sr14  1  0.58276900  0.72566800  0.88790100  1
