# generated using pymatgen
data_Sr2NbH7
_symmetry_space_group_name_H-M   'P 1'
_cell_length_a   2.85208300
_cell_length_b   8.23880896
_cell_length_c   9.83272389
_cell_angle_alpha   79.40917427
_cell_angle_beta   83.07372925
_cell_angle_gamma   86.66413194
_symmetry_Int_Tables_number   1
_chemical_formula_structural   Sr2NbH7
_chemical_formula_sum   'Sr2 Nb1 H7'
_cell_volume   225.29999999
_cell_formula_units_Z   1
loop_
 _symmetry_equiv_pos_site_id
 _symmetry_equiv_pos_as_xyz
  1  'x, y, z'
loop_
 _atom_site_type_symbol
 _atom_site_label
 _atom_site_symmetry_multiplicity
 _atom_site_fract_x
 _atom_site_fract_y
 _atom_site_fract_z
 _atom_site_occupancy
  H  H0  1  0.47565500  0.18748600  0.73144300  1
  H  H1  1  0.80249600  0.06538400  0.81796600  1
  Sr  Sr2  1  0.08036800  0.43548000  0.92683900  1
  Nb  Nb3  1  0.53720800  0.71031600  0.80705300  1
  H  H4  1  0.98302000  0.16622900  0.14299100  1
  H  H5  1  0.80106900  0.13963800  0.12547100  1
  H  H6  1  0.73510400  0.86933800  0.24977500  1
  H  H7  1  0.03030700  0.83503300  0.11301700  1
  H  H8  1  0.02657400  0.29344400  0.36201800  1
  Sr  Sr9  1  0.60128400  0.50451500  0.16821300  1
