# generated using pymatgen
data_Sr3(NbH8)2
_symmetry_space_group_name_H-M   'P 1'
_cell_length_a   5.48491300
_cell_length_b   6.22028025
_cell_length_c   7.67466147
_cell_angle_alpha   75.82679690
_cell_angle_beta   77.42065005
_cell_angle_gamma   67.44773906
_symmetry_Int_Tables_number   1
_chemical_formula_structural   Sr3(NbH8)2
_chemical_formula_sum   'Sr3 Nb2 H16'
_cell_volume   232.20300037
_cell_formula_units_Z   1
loop_
 _symmetry_equiv_pos_site_id
 _symmetry_equiv_pos_as_xyz
  1  'x, y, z'
loop_
 _atom_site_type_symbol
 _atom_site_label
 _atom_site_symmetry_multiplicity
 _atom_site_fract_x
 _atom_site_fract_y
 _atom_site_fract_z
 _atom_site_occupancy
  Sr  Sr0  1  0.20955700  0.96306700  0.38850500  1
  H  H1  1  0.95951400  0.25053200  0.45332200  1
  Nb  Nb2  1  0.55143100  0.38968000  0.31044500  1
  H  H3  1  0.38050100  0.28358200  0.20512200  1
  H  H4  1  0.37175400  0.54619200  0.50100900  1
  H  H5  1  0.65688500  0.66448200  0.24790600  1
  H  H6  1  0.68451700  0.43790200  0.05455900  1
  H  H7  1  0.21541000  0.63608900  0.25375100  1
  H  H8  1  0.32160100  0.22839800  0.49576500  1
  H  H9  1  0.70592000  0.81456200  0.88810200  1
  H  H10  1  0.78418100  0.77684400  0.95300800  1
  Nb  Nb11  1  0.48644000  0.03793400  0.73837400  1
  H  H12  1  0.43303500  0.83767200  0.62931400  1
  H  H13  1  0.58670900  0.27639100  0.78103600  1
  H  H14  1  0.29745300  0.83823800  0.88906900  1
  H  H15  1  0.34924500  0.06885000  0.98692300  1
  Sr  Sr16  1  0.74825100  0.59945700  0.71902000  1
  H  H17  1  0.11434700  0.27087200  0.78091200  1
  Sr  Sr18  1  0.15595800  0.51398300  0.94492200  1
  H  H19  1  0.76030100  0.90643400  0.44006100  1
  H  H20  1  0.86575300  0.93950000  0.14780800  1
