# generated using pymatgen
data_Sr2NbH11
_symmetry_space_group_name_H-M   'P 1'
_cell_length_a   4.20296500
_cell_length_b   5.90061813
_cell_length_c   6.34124926
_cell_angle_alpha   87.45339844
_cell_angle_beta   88.22925688
_cell_angle_gamma   88.78753159
_symmetry_Int_Tables_number   1
_chemical_formula_structural   Sr2NbH11
_chemical_formula_sum   'Sr2 Nb1 H11'
_cell_volume   157.00239184
_cell_formula_units_Z   1
loop_
 _symmetry_equiv_pos_site_id
 _symmetry_equiv_pos_as_xyz
  1  'x, y, z'
loop_
 _atom_site_type_symbol
 _atom_site_label
 _atom_site_symmetry_multiplicity
 _atom_site_fract_x
 _atom_site_fract_y
 _atom_site_fract_z
 _atom_site_occupancy
  H  H0  1  0.17122000  0.19852000  0.36293000  1
  H  H1  1  0.31765800  0.23890200  0.21330200  1
  H  H2  1  0.12259800  0.44800000  0.59193200  1
  H  H3  1  0.35796900  0.41900900  0.44714700  1
  Sr  Sr4  1  0.68215800  0.08393800  0.19603200  1
  Nb  Nb5  1  0.15328600  0.12881900  0.66225800  1
  H  H6  1  0.42800100  0.00060200  0.86140700  1
  H  H7  1  0.95750900  0.89265100  0.52637100  1
  H  H8  1  0.39989200  0.90571000  0.53093000  1
  H  H9  1  0.62944500  0.21838900  0.61253200  1
  H  H10  1  0.98409600  0.91448400  0.87304300  1
  H  H11  1  0.10409600  0.30187100  0.92508900  1
  Sr  Sr12  1  0.61663500  0.61225700  0.76732400  1
  H  H13  1  0.63780300  0.62978100  0.15965800  1
