# generated using pymatgen
data_Sr2NbH16
_symmetry_space_group_name_H-M   'P 1'
_cell_length_a   3.92063600
_cell_length_b   6.92273167
_cell_length_c   7.10126623
_cell_angle_alpha   80.75123410
_cell_angle_beta   81.96725512
_cell_angle_gamma   82.77035355
_symmetry_Int_Tables_number   1
_chemical_formula_structural   Sr2NbH16
_chemical_formula_sum   'Sr2 Nb1 H16'
_cell_volume   187.30998696
_cell_formula_units_Z   1
loop_
 _symmetry_equiv_pos_site_id
 _symmetry_equiv_pos_as_xyz
  1  'x, y, z'
loop_
 _atom_site_type_symbol
 _atom_site_label
 _atom_site_symmetry_multiplicity
 _atom_site_fract_x
 _atom_site_fract_y
 _atom_site_fract_z
 _atom_site_occupancy
  H  H0  1  0.45280200  0.64192500  0.54775700  1
  H  H1  1  0.21291300  0.73817100  0.37815400  1
  H  H2  1  0.10573700  0.46163700  0.53726400  1
  H  H3  1  0.16157300  0.40500800  0.14478600  1
  H  H4  1  0.35998400  0.43253900  0.11466000  1
  H  H5  1  0.19734500  0.05337200  0.70260400  1
  H  H6  1  0.27514100  0.02599000  0.60009100  1
  H  H7  1  0.32189000  0.02463100  0.93862100  1
  H  H8  1  0.20891100  0.94601800  0.11176600  1
  Nb  Nb9  1  0.47218100  0.16832000  0.05004900  1
  H  H10  1  0.97134700  0.15706000  0.14130800  1
  H  H11  1  0.24285300  0.29989200  0.85784500  1
  H  H12  1  0.67986600  0.35045400  0.85777700  1
  H  H13  1  0.77260300  0.05893300  0.85351300  1
  H  H14  1  0.37744500  0.11220300  0.32728500  1
  H  H15  1  0.70073700  0.55452000  0.23154200  1
  Sr  Sr16  1  0.87521700  0.64475300  0.83875400  1
  H  H17  1  0.28660500  0.72538500  0.94225800  1
  Sr  Sr18  1  0.70916700  0.24623300  0.51623700  1
