# generated using pymatgen
data_SrNbH15
_symmetry_space_group_name_H-M   'P 1'
_cell_length_a   4.95497700
_cell_length_b   5.00166518
_cell_length_c   5.81394416
_cell_angle_alpha   89.07078002
_cell_angle_beta   76.00798691
_cell_angle_gamma   76.48299429
_symmetry_Int_Tables_number   1
_chemical_formula_structural   SrNbH15
_chemical_formula_sum   'Sr1 Nb1 H15'
_cell_volume   135.81582288
_cell_formula_units_Z   1
loop_
 _symmetry_equiv_pos_site_id
 _symmetry_equiv_pos_as_xyz
  1  'x, y, z'
loop_
 _atom_site_type_symbol
 _atom_site_label
 _atom_site_symmetry_multiplicity
 _atom_site_fract_x
 _atom_site_fract_y
 _atom_site_fract_z
 _atom_site_occupancy
  H  H0  1  0.24679500  0.69184000  0.38939800  1
  H  H1  1  0.12691700  0.61350600  0.34775500  1
  H  H2  1  0.44205400  0.71210200  0.03427300  1
  H  H3  1  0.40521800  0.86813000  0.02159800  1
  Nb  Nb4  1  0.71752400  0.86650500  0.84287900  1
  H  H5  1  0.51554000  0.09184100  0.92136300  1
  H  H6  1  0.83925700  0.74595600  0.61751500  1
  H  H7  1  0.62541100  0.52457700  0.80995700  1
  H  H8  1  0.91878000  0.75077300  0.09299000  1
  H  H9  1  0.90407100  0.91555600  0.10919000  1
  H  H10  1  0.07516400  0.91639000  0.81477700  1
  H  H11  1  0.95430300  0.16948000  0.88082700  1
  H  H12  1  0.44543300  0.84394700  0.65275800  1
  H  H13  1  0.65006000  0.45108700  0.33290400  1
  H  H14  1  0.67536000  0.54982500  0.41342500  1
  Sr  Sr15  1  0.49041700  0.16242900  0.40086400  1
  H  H16  1  0.78899100  0.21446800  0.56695200  1
