# generated using pymatgen
data_Sr2Nb3H17
_symmetry_space_group_name_H-M   'P 1'
_cell_length_a   5.15487900
_cell_length_b   5.85616052
_cell_length_c   6.68194117
_cell_angle_alpha   92.13983281
_cell_angle_beta   101.76858386
_cell_angle_gamma   102.24761214
_symmetry_Int_Tables_number   1
_chemical_formula_structural   Sr2Nb3H17
_chemical_formula_sum   'Sr2 Nb3 H17'
_cell_volume   192.29229119
_cell_formula_units_Z   1
loop_
 _symmetry_equiv_pos_site_id
 _symmetry_equiv_pos_as_xyz
  1  'x, y, z'
loop_
 _atom_site_type_symbol
 _atom_site_label
 _atom_site_symmetry_multiplicity
 _atom_site_fract_x
 _atom_site_fract_y
 _atom_site_fract_z
 _atom_site_occupancy
  Sr  Sr0  1  0.55811400  0.12834600  0.08097200  1
  H  H1  1  0.80252300  0.17877500  0.91274600  1
  H  H2  1  0.72749700  0.61336700  0.04157400  1
  H  H3  1  0.79583800  0.67358200  0.96982800  1
  H  H4  1  0.06386200  0.88163300  0.01079600  1
  H  H5  1  0.04738100  0.96537100  0.26418100  1
  H  H6  1  0.23569200  0.32696300  0.33043500  1
  H  H7  1  0.33767300  0.20459400  0.40835900  1
  Nb  Nb8  1  0.51649900  0.03043600  0.54140700  1
  H  H9  1  0.72334500  0.88273700  0.66653000  1
  H  H10  1  0.74643900  0.37238600  0.33084200  1
  H  H11  1  0.76396100  0.16011800  0.41687600  1
  H  H12  1  0.76474600  0.59928900  0.43382300  1
  H  H13  1  0.18111700  0.51722300  0.07172600  1
  H  H14  1  0.14334000  0.40066000  0.86454200  1
  Nb  Nb15  1  0.54097500  0.54293100  0.58773000  1
  H  H16  1  0.28674300  0.40295600  0.66965800  1
  Nb  Nb17  1  0.02742200  0.50422900  0.56976200  1
  H  H18  1  0.77461300  0.40728300  0.68839200  1
  H  H19  1  0.29752600  0.66950700  0.46876800  1
  H  H20  1  0.55036200  0.76345500  0.31984200  1
  Sr  Sr21  1  0.03562400  0.00314300  0.56533400  1
