# generated using pymatgen
data_SrNbH6
_symmetry_space_group_name_H-M   'P 1'
_cell_length_a   2.90570600
_cell_length_b   3.08263245
_cell_length_c   19.62659262
_cell_angle_alpha   87.04102829
_cell_angle_beta   87.52322721
_cell_angle_gamma   63.10012327
_symmetry_Int_Tables_number   1
_chemical_formula_structural   SrNbH6
_chemical_formula_sum   'Sr1 Nb1 H6'
_cell_volume   156.53002558
_cell_formula_units_Z   1
loop_
 _symmetry_equiv_pos_site_id
 _symmetry_equiv_pos_as_xyz
  1  'x, y, z'
loop_
 _atom_site_type_symbol
 _atom_site_label
 _atom_site_symmetry_multiplicity
 _atom_site_fract_x
 _atom_site_fract_y
 _atom_site_fract_z
 _atom_site_occupancy
  H  H0  1  0.06028900  0.93166000  0.86588700  1
  H  H1  1  0.16853600  0.67495800  0.82280700  1
  H  H2  1  0.73122300  0.82376900  0.87773300  1
  H  H3  1  0.07268800  0.13396000  0.77117200  1
  H  H4  1  0.21058200  0.24014000  0.40678600  1
  Sr  Sr5  1  0.79548500  0.12559000  0.44083300  1
  H  H6  1  0.72582200  0.98881500  0.08284100  1
  Nb  Nb7  1  0.39520300  0.42553400  0.23905400  1
