# generated using pymatgen
data_Sr2NbH11
_symmetry_space_group_name_H-M   'P 1'
_cell_length_a   5.19958000
_cell_length_b   5.27875257
_cell_length_c   5.97051198
_cell_angle_alpha   90.84425800
_cell_angle_beta   103.20012216
_cell_angle_gamma   99.73823680
_symmetry_Int_Tables_number   1
_chemical_formula_structural   Sr2NbH11
_chemical_formula_sum   'Sr2 Nb1 H11'
_cell_volume   157.00236079
_cell_formula_units_Z   1
loop_
 _symmetry_equiv_pos_site_id
 _symmetry_equiv_pos_as_xyz
  1  'x, y, z'
loop_
 _atom_site_type_symbol
 _atom_site_label
 _atom_site_symmetry_multiplicity
 _atom_site_fract_x
 _atom_site_fract_y
 _atom_site_fract_z
 _atom_site_occupancy
  H  H0  1  0.25661400  0.70284600  0.60927800  1
  H  H1  1  0.11129200  0.69959600  0.50744100  1
  H  H2  1  0.79843700  0.97364000  0.51210700  1
  H  H3  1  0.85308100  0.27775200  0.44812100  1
  H  H4  1  0.73329100  0.59264200  0.16486600  1
  H  H5  1  0.45234600  0.42897800  0.23331000  1
  H  H6  1  0.61246600  0.46465600  0.87047700  1
  H  H7  1  0.29600000  0.22600900  0.93172700  1
  H  H8  1  0.95504700  0.21825000  0.94368200  1
  Nb  Nb9  1  0.70824200  0.23384200  0.12388400  1
  H  H10  1  0.06724700  0.40947200  0.23014800  1
  H  H11  1  0.60709100  0.95025200  0.89325600  1
  Sr  Sr12  1  0.12480700  0.71957200  0.97630700  1
  Sr  Sr13  1  0.39606500  0.19132100  0.54104700  1
