# generated using pymatgen
data_Sr2NbH7
_symmetry_space_group_name_H-M   'P 1'
_cell_length_a   3.90046500
_cell_length_b   5.75691136
_cell_length_c   5.88733095
_cell_angle_alpha   117.90963076
_cell_angle_beta   90.10164155
_cell_angle_gamma   91.27411723
_symmetry_Int_Tables_number   1
_chemical_formula_structural   Sr2NbH7
_chemical_formula_sum   'Sr2 Nb1 H7'
_cell_volume   116.78152586
_cell_formula_units_Z   1
loop_
 _symmetry_equiv_pos_site_id
 _symmetry_equiv_pos_as_xyz
  1  'x, y, z'
loop_
 _atom_site_type_symbol
 _atom_site_label
 _atom_site_symmetry_multiplicity
 _atom_site_fract_x
 _atom_site_fract_y
 _atom_site_fract_z
 _atom_site_occupancy
  Sr  Sr0  1  0.61176300  0.54932800  0.64102400  1
  H  H1  1  0.56981900  0.49479700  0.29495000  1
  H  H2  1  0.70565900  0.86397100  0.61388900  1
  H  H3  1  0.91542200  0.61994800  0.92701700  1
  H  H4  1  0.72538600  0.17732200  0.42159600  1
  H  H5  1  0.44830500  0.86884200  0.94377700  1
  H  H6  1  0.43818400  0.34952700  0.81883800  1
  H  H7  1  0.10136800  0.54287700  0.51599400  1
  Nb  Nb8  1  0.94799700  0.20080900  0.99453100  1
  Sr  Sr9  1  0.24358300  0.88537600  0.34570500  1
