# generated using pymatgen
data_Sr5NbH16
_symmetry_space_group_name_H-M   'P 1'
_cell_length_a   5.97054900
_cell_length_b   6.30425382
_cell_length_c   7.80833797
_cell_angle_alpha   80.07107649
_cell_angle_beta   84.23373260
_cell_angle_gamma   67.95900179
_symmetry_Int_Tables_number   1
_chemical_formula_structural   Sr5NbH16
_chemical_formula_sum   'Sr5 Nb1 H16'
_cell_volume   268.13864605
_cell_formula_units_Z   1
loop_
 _symmetry_equiv_pos_site_id
 _symmetry_equiv_pos_as_xyz
  1  'x, y, z'
loop_
 _atom_site_type_symbol
 _atom_site_label
 _atom_site_symmetry_multiplicity
 _atom_site_fract_x
 _atom_site_fract_y
 _atom_site_fract_z
 _atom_site_occupancy
  Nb  Nb0  1  0.70895000  0.00087800  0.32233500  1
  H  H1  1  0.56262400  0.93950000  0.14780800  1
  H  H2  1  0.93645100  0.88674200  0.14792900  1
  H  H3  1  0.40220800  0.22354100  0.27369400  1
  H  H4  1  0.78980600  0.86629200  0.55218200  1
  H  H5  1  0.72681300  0.24705600  0.14760100  1
  H  H6  1  0.45717200  0.90643400  0.44006100  1
  H  H7  1  0.01988500  0.01584400  0.34059400  1
  H  H8  1  0.80453300  0.66925000  0.34439100  1
  H  H9  1  0.65638500  0.25053200  0.45332200  1
  H  H10  1  0.48105300  0.77684400  0.95300800  1
  H  H11  1  0.48018400  0.91685200  0.86714100  1
  Sr  Sr12  1  0.78507000  0.92610000  0.85504700  1
  H  H13  1  0.40060000  0.22814300  0.77248000  1
  H  H14  1  0.15296500  0.96649500  0.76537800  1
  Sr  Sr15  1  0.44512200  0.59945700  0.71902000  1
  H  H16  1  0.22382500  0.56963400  0.50956200  1
  Sr  Sr17  1  0.10279900  0.26118700  0.52857200  1
  Sr  Sr18  1  0.40905400  0.61342200  0.23804400  1
  Sr  Sr19  1  0.14935000  0.18211800  0.01927400  1
  H  H20  1  0.84527000  0.34525000  0.79408600  1
  H  H21  1  0.15770300  0.56692900  0.97627700  1
