# generated using pymatgen
data_Sr2NbH10
_symmetry_space_group_name_H-M   'P 1'
_cell_length_a   3.98551300
_cell_length_b   5.67340001
_cell_length_c   5.99866904
_cell_angle_alpha   77.99475247
_cell_angle_beta   87.92517973
_cell_angle_gamma   88.85490700
_symmetry_Int_Tables_number   1
_chemical_formula_structural   Sr2NbH10
_chemical_formula_sum   'Sr2 Nb1 H10'
_cell_volume   132.57401463
_cell_formula_units_Z   1
loop_
 _symmetry_equiv_pos_site_id
 _symmetry_equiv_pos_as_xyz
  1  'x, y, z'
loop_
 _atom_site_type_symbol
 _atom_site_label
 _atom_site_symmetry_multiplicity
 _atom_site_fract_x
 _atom_site_fract_y
 _atom_site_fract_z
 _atom_site_occupancy
  H  H0  1  0.95750900  0.89265100  0.57175800  1
  H  H1  1  0.39989200  0.90571000  0.57631800  1
  Nb  Nb2  1  0.15328600  0.12881900  0.70764600  1
  H  H3  1  0.42800100  0.00060200  0.90679500  1
  H  H4  1  0.98409600  0.91448400  0.91843100  1
  H  H5  1  0.17122000  0.19852000  0.40831800  1
  H  H6  1  0.12259800  0.44800000  0.63732000  1
  H  H7  1  0.62944500  0.21838900  0.65792000  1
  H  H8  1  0.37344200  0.38762800  0.07452600  1
  H  H9  1  0.10409600  0.30187100  0.97047700  1
  Sr  Sr10  1  0.79549300  0.08014700  0.14234500  1
  Sr  Sr11  1  0.61663500  0.61225700  0.81271200  1
  H  H12  1  0.63780300  0.62978100  0.20504600  1
