# generated using pymatgen
data_SrNbH10
_symmetry_space_group_name_H-M   'P 1'
_cell_length_a   4.09399700
_cell_length_b   7.63355594
_cell_length_c   7.85934791
_cell_angle_alpha   62.54235649
_cell_angle_beta   77.76540552
_cell_angle_gamma   88.98917441
_symmetry_Int_Tables_number   1
_chemical_formula_structural   SrNbH10
_chemical_formula_sum   'Sr1 Nb1 H10'
_cell_volume   212.09002721
_cell_formula_units_Z   1
loop_
 _symmetry_equiv_pos_site_id
 _symmetry_equiv_pos_as_xyz
  1  'x, y, z'
loop_
 _atom_site_type_symbol
 _atom_site_label
 _atom_site_symmetry_multiplicity
 _atom_site_fract_x
 _atom_site_fract_y
 _atom_site_fract_z
 _atom_site_occupancy
  H  H0  1  0.82963700  0.01099800  0.41478900  1
  H  H1  1  0.72987700  0.69563700  0.51538900  1
  H  H2  1  0.06167600  0.29647100  0.62275000  1
  Nb  Nb3  1  0.09202600  0.11339700  0.80057500  1
  H  H4  1  0.69397800  0.08124000  0.83797700  1
  H  H5  1  0.38816500  0.37043700  0.25176800  1
  H  H6  1  0.39402000  0.45243500  0.23983400  1
  H  H7  1  0.46219000  0.50292100  0.10362000  1
  H  H8  1  0.71863700  0.33823900  0.08798400  1
  H  H9  1  0.73893700  0.41904300  0.91503900  1
  H  H10  1  0.35495600  0.41176800  0.87139300  1
  Sr  Sr11  1  0.97543200  0.49294000  0.26422100  1
