# generated using pymatgen
data_Sr2Nb2H21
_symmetry_space_group_name_H-M   'P 1'
_cell_length_a   5.29388200
_cell_length_b   5.91719184
_cell_length_c   6.89714501
_cell_angle_alpha   81.80570997
_cell_angle_beta   89.79154764
_cell_angle_gamma   73.50834426
_symmetry_Int_Tables_number   1
_chemical_formula_structural   Sr2Nb2H21
_chemical_formula_sum   'Sr2 Nb2 H21'
_cell_volume   204.89487076
_cell_formula_units_Z   1
loop_
 _symmetry_equiv_pos_site_id
 _symmetry_equiv_pos_as_xyz
  1  'x, y, z'
loop_
 _atom_site_type_symbol
 _atom_site_label
 _atom_site_symmetry_multiplicity
 _atom_site_fract_x
 _atom_site_fract_y
 _atom_site_fract_z
 _atom_site_occupancy
  Nb  Nb0  1  0.52318400  0.58444400  0.10268800  1
  H  H1  1  0.43880400  0.86217700  0.05820400  1
  H  H2  1  0.77769000  0.37920000  0.18134500  1
  H  H3  1  0.19738800  0.63561900  0.12524800  1
  H  H4  1  0.40694100  0.01060300  0.55017300  1
  H  H5  1  0.42717500  0.88149400  0.56589600  1
  Nb  Nb6  1  0.52775000  0.60635500  0.66322100  1
  H  H7  1  0.77509300  0.40195600  0.68115300  1
  H  H8  1  0.40602800  0.37681200  0.64838800  1
  H  H9  1  0.20059500  0.64488400  0.61976100  1
  H  H10  1  0.35879000  0.70365800  0.85916700  1
  H  H11  1  0.52794300  0.41565500  0.91907700  1
  H  H12  1  0.38260900  0.33949600  0.21523700  1
  H  H13  1  0.78592500  0.70043700  0.15979500  1
  H  H14  1  0.71667000  0.65941800  0.87313800  1
  H  H15  1  0.79344700  0.72533600  0.55033900  1
  H  H16  1  0.15960400  0.16216400  0.73019000  1
  H  H17  1  0.49069100  0.61533700  0.37736200  1
  Sr  Sr18  1  0.06644000  0.38515600  0.92592400  1
  H  H19  1  0.14834700  0.05297600  0.27143700  1
  H  H20  1  0.13123400  0.98753800  0.23606500  1
  H  H21  1  0.13356000  0.99300700  0.33996300  1
  H  H22  1  0.84945800  0.13178200  0.48526600  1
  H  H23  1  0.86908500  0.09342800  0.01206100  1
  Sr  Sr24  1  0.05033300  0.42841900  0.43160400  1
