# generated using pymatgen
data_Sr2NbH13
_symmetry_space_group_name_H-M   'P 1'
_cell_length_a   4.77707500
_cell_length_b   5.65909014
_cell_length_c   6.35714129
_cell_angle_alpha   65.44944684
_cell_angle_beta   82.97321750
_cell_angle_gamma   74.69047283
_symmetry_Int_Tables_number   1
_chemical_formula_structural   Sr2NbH13
_chemical_formula_sum   'Sr2 Nb1 H13'
_cell_volume   150.75854509
_cell_formula_units_Z   1
loop_
 _symmetry_equiv_pos_site_id
 _symmetry_equiv_pos_as_xyz
  1  'x, y, z'
loop_
 _atom_site_type_symbol
 _atom_site_label
 _atom_site_symmetry_multiplicity
 _atom_site_fract_x
 _atom_site_fract_y
 _atom_site_fract_z
 _atom_site_occupancy
  H  H0  1  0.38595900  0.66551600  0.07674300  1
  H  H1  1  0.46208800  0.71132800  0.14497300  1
  H  H2  1  0.14727400  0.85349400  0.40408700  1
  H  H3  1  0.26623400  0.72724000  0.49746500  1
  H  H4  1  0.15787700  0.85408800  0.79506500  1
  H  H5  1  0.10175700  0.99655200  0.78413200  1
  H  H6  1  0.99973500  0.31524400  0.77233200  1
  Nb  Nb7  1  0.87057700  0.63233500  0.52402100  1
  H  H8  1  0.67990800  0.43746900  0.45825400  1
  H  H9  1  0.87561800  0.70218700  0.77618900  1
  H  H10  1  0.69159700  0.98598300  0.45497900  1
  H  H11  1  0.15065900  0.40633800  0.42428700  1
  H  H12  1  0.85170700  0.79947800  0.19486700  1
  Sr  Sr13  1  0.53021600  0.11962000  0.77505900  1
  Sr  Sr14  1  0.87011500  0.33080000  0.14463500  1
  H  H15  1  0.38922000  0.24813000  0.08360700  1
