# generated using pymatgen
data_Sr(NbH4)2
_symmetry_space_group_name_H-M   'P 1'
_cell_length_a   3.44181500
_cell_length_b   3.83109218
_cell_length_c   7.48535038
_cell_angle_alpha   104.71291778
_cell_angle_beta   103.23006443
_cell_angle_gamma   90.10289368
_symmetry_Int_Tables_number   1
_chemical_formula_structural   Sr(NbH4)2
_chemical_formula_sum   'Sr1 Nb2 H8'
_cell_volume   92.74267521
_cell_formula_units_Z   1
loop_
 _symmetry_equiv_pos_site_id
 _symmetry_equiv_pos_as_xyz
  1  'x, y, z'
loop_
 _atom_site_type_symbol
 _atom_site_label
 _atom_site_symmetry_multiplicity
 _atom_site_fract_x
 _atom_site_fract_y
 _atom_site_fract_z
 _atom_site_occupancy
  H  H0  1  0.64845700  0.96666100  0.59304900  1
  Nb  Nb1  1  0.64826800  0.44743400  0.59345900  1
  H  H2  1  0.15671200  0.21535300  0.61036900  1
  H  H3  1  0.03650500  0.08527400  0.34854000  1
  H  H4  1  0.76854800  0.83386800  0.84721900  1
  H  H5  1  0.87901700  0.70943300  0.06872800  1
  H  H6  1  0.87770500  0.18319600  0.06712700  1
  H  H7  1  0.27690300  0.09636200  0.86535700  1
  Nb  Nb8  1  0.27663200  0.58691200  0.86427500  1
  H  H9  1  0.10223700  0.66264700  0.50349700  1
  Sr  Sr10  1  0.46337200  0.52668100  0.23445900  1
