# generated using pymatgen
data_SrNbH14
_symmetry_space_group_name_H-M   'P 1'
_cell_length_a   4.78438300
_cell_length_b   4.82352067
_cell_length_c   5.49937573
_cell_angle_alpha   89.94037285
_cell_angle_beta   75.42047764
_cell_angle_gamma   89.21590512
_symmetry_Int_Tables_number   1
_chemical_formula_structural   SrNbH14
_chemical_formula_sum   'Sr1 Nb1 H14'
_cell_volume   122.81367420
_cell_formula_units_Z   1
loop_
 _symmetry_equiv_pos_site_id
 _symmetry_equiv_pos_as_xyz
  1  'x, y, z'
loop_
 _atom_site_type_symbol
 _atom_site_label
 _atom_site_symmetry_multiplicity
 _atom_site_fract_x
 _atom_site_fract_y
 _atom_site_fract_z
 _atom_site_occupancy
  Sr  Sr0  1  0.45814000  0.58311900  0.91827900  1
  H  H1  1  0.61335100  0.27058800  0.97324700  1
  H  H2  1  0.40678900  0.53855300  0.52456300  1
  H  H3  1  0.27767200  0.30093600  0.47205100  1
  H  H4  1  0.58677400  0.17933400  0.43296500  1
  H  H5  1  0.51598000  0.09059500  0.70772900  1
  H  H6  1  0.91979400  0.29701000  0.16737100  1
  H  H7  1  0.90180000  0.27814800  0.27534200  1
  H  H8  1  0.22953400  0.27382900  0.97949300  1
  Nb  Nb9  1  0.97714100  0.82013900  0.65405700  1
  H  H10  1  0.10758000  0.07494400  0.72456000  1
  H  H11  1  0.96766900  0.50954300  0.64726800  1
  H  H12  1  0.27502200  0.84877000  0.35717400  1
  H  H13  1  0.26588200  0.00368800  0.21949100  1
  H  H14  1  0.96931600  0.69807500  0.36121500  1
  H  H15  1  0.95165200  0.70304400  0.95721000  1
