# generated using pymatgen
data_Sr2NbH15
_symmetry_space_group_name_H-M   'P 1'
_cell_length_a   4.32913100
_cell_length_b   6.26345183
_cell_length_c   6.63600606
_cell_angle_alpha   70.17527822
_cell_angle_beta   78.39707638
_cell_angle_gamma   75.05594928
_symmetry_Int_Tables_number   1
_chemical_formula_structural   Sr2NbH15
_chemical_formula_sum   'Sr2 Nb1 H15'
_cell_volume   162.26407804
_cell_formula_units_Z   1
loop_
 _symmetry_equiv_pos_site_id
 _symmetry_equiv_pos_as_xyz
  1  'x, y, z'
loop_
 _atom_site_type_symbol
 _atom_site_label
 _atom_site_symmetry_multiplicity
 _atom_site_fract_x
 _atom_site_fract_y
 _atom_site_fract_z
 _atom_site_occupancy
  H  H0  1  0.09268700  0.58155200  0.19486700  1
  H  H1  1  0.67884900  0.71215900  0.14130800  1
  H  H2  1  0.38825400  0.63556800  0.40408700  1
  H  H3  1  0.50721400  0.50931300  0.49746500  1
  Sr  Sr4  1  0.45863500  0.21271800  0.20754900  1
  H  H5  1  0.39163900  0.18841200  0.42428700  1
  H  H6  1  0.90484700  0.60847100  0.70260400  1
  H  H7  1  0.98264300  0.58108900  0.60009100  1
  H  H8  1  0.11659700  0.48426100  0.77618900  1
  Nb  Nb9  1  0.11155700  0.41440900  0.52402100  1
  H  H10  1  0.99410700  0.28048300  0.94225800  1
  H  H11  1  0.39885700  0.63616200  0.79506500  1
  H  H12  1  0.34273700  0.77862600  0.78413200  1
  H  H13  1  0.95035500  0.85499100  0.85784500  1
  H  H14  1  0.24071400  0.09731800  0.77233200  1
  Sr  Sr15  1  0.58271900  0.19985100  0.83875400  1
  H  H16  1  0.86907500  0.96010600  0.14478600  1
  H  H17  1  0.81323900  0.01673500  0.53726400  1
