# generated using pymatgen
data_SrNbH9
_symmetry_space_group_name_H-M   'P 1'
_cell_length_a   3.33234800
_cell_length_b   5.15620456
_cell_length_c   5.96766203
_cell_angle_alpha   65.12020975
_cell_angle_beta   89.73591278
_cell_angle_gamma   89.85924407
_symmetry_Int_Tables_number   1
_chemical_formula_structural   SrNbH9
_chemical_formula_sum   'Sr1 Nb1 H9'
_cell_volume   93.02066916
_cell_formula_units_Z   1
loop_
 _symmetry_equiv_pos_site_id
 _symmetry_equiv_pos_as_xyz
  1  'x, y, z'
loop_
 _atom_site_type_symbol
 _atom_site_label
 _atom_site_symmetry_multiplicity
 _atom_site_fract_x
 _atom_site_fract_y
 _atom_site_fract_z
 _atom_site_occupancy
  H  H0  1  0.28169600  0.06488100  0.97122300  1
  H  H1  1  0.47022600  0.11652900  0.89175800  1
  H  H2  1  0.83315200  0.85188400  0.28351000  1
  H  H3  1  0.83606000  0.03830000  0.27744200  1
  Nb  Nb4  1  0.84409100  0.41520000  0.33198600  1
  H  H5  1  0.83206800  0.06979100  0.61075800  1
  H  H6  1  0.83357200  0.63784300  0.98975500  1
  H  H7  1  0.32336700  0.65687400  0.26631700  1
  H  H8  1  0.31887000  0.28791300  0.52387300  1
  H  H9  1  0.32063200  0.31897200  0.18960400  1
  Sr  Sr10  1  0.33481500  0.72952500  0.70105400  1
