# generated using pymatgen
data_SrNb3H16
_symmetry_space_group_name_H-M   'P 1'
_cell_length_a   4.91210800
_cell_length_b   5.52397555
_cell_length_c   5.59395947
_cell_angle_alpha   89.34942213
_cell_angle_beta   83.00707044
_cell_angle_gamma   87.29774550
_symmetry_Int_Tables_number   1
_chemical_formula_structural   SrNb3H16
_chemical_formula_sum   'Sr1 Nb3 H16'
_cell_volume   150.48946477
_cell_formula_units_Z   1
loop_
 _symmetry_equiv_pos_site_id
 _symmetry_equiv_pos_as_xyz
  1  'x, y, z'
loop_
 _atom_site_type_symbol
 _atom_site_label
 _atom_site_symmetry_multiplicity
 _atom_site_fract_x
 _atom_site_fract_y
 _atom_site_fract_z
 _atom_site_occupancy
  H  H0  1  0.96202500  0.75689600  0.63207100  1
  H  H1  1  0.93129900  0.50285800  0.48880900  1
  Nb  Nb2  1  0.02797600  0.76702900  0.33229100  1
  H  H3  1  0.90135600  0.69384000  0.07846300  1
  H  H4  1  0.25786900  0.98304800  0.37832400  1
  H  H5  1  0.94679000  0.24529200  0.13015800  1
  H  H6  1  0.91412500  0.32513600  0.07336600  1
  H  H7  1  0.86230600  0.13748300  0.06610600  1
  H  H8  1  0.56855900  0.27040900  0.89538100  1
  H  H9  1  0.70180900  0.51625500  0.89026200  1
  Nb  Nb10  1  0.53306300  0.21682100  0.57841000  1
  H  H11  1  0.64841100  0.32549200  0.42397800  1
  H  H12  1  0.22555500  0.19529400  0.70470400  1
  Nb  Nb13  1  0.58375500  0.52201500  0.19733200  1
  H  H14  1  0.60153800  0.73285700  0.40408400  1
  H  H15  1  0.67977300  0.01854600  0.33988400  1
  H  H16  1  0.41079600  0.78471500  0.11870500  1
  H  H17  1  0.23891300  0.50140000  0.15771200  1
  H  H18  1  0.88081500  0.17165800  0.66022000  1
  Sr  Sr19  1  0.27250600  0.50190200  0.75799500  1
