# generated using pymatgen
data_SrNbH14
_symmetry_space_group_name_H-M   'P 1'
_cell_length_a   4.47542000
_cell_length_b   4.99935048
_cell_length_c   5.77270212
_cell_angle_alpha   102.60595099
_cell_angle_beta   97.23056958
_cell_angle_gamma   98.89100471
_symmetry_Int_Tables_number   1
_chemical_formula_structural   SrNbH14
_chemical_formula_sum   'Sr1 Nb1 H14'
_cell_volume   122.81366623
_cell_formula_units_Z   1
loop_
 _symmetry_equiv_pos_site_id
 _symmetry_equiv_pos_as_xyz
  1  'x, y, z'
loop_
 _atom_site_type_symbol
 _atom_site_label
 _atom_site_symmetry_multiplicity
 _atom_site_fract_x
 _atom_site_fract_y
 _atom_site_fract_z
 _atom_site_occupancy
  H  H0  1  0.53540100  0.41895700  0.98362200  1
  H  H1  1  0.67034000  0.52873000  0.09548700  1
  H  H2  1  0.28960500  0.58780500  0.79927800  1
  H  H3  1  0.21570500  0.47466600  0.68559600  1
  H  H4  1  0.30477400  0.84961900  0.92315000  1
  H  H5  1  0.39685300  0.09677200  0.86271400  1
  Sr  Sr6  1  0.29485000  0.90323800  0.58960100  1
  H  H7  1  0.28897500  0.83288800  0.20801600  1
  H  H8  1  0.95494200  0.29796200  0.92298700  1
  H  H9  1  0.80780300  0.20892600  0.80954300  1
  Nb  Nb10  1  0.70786600  0.17430300  0.14391900  1
  H  H11  1  0.43666300  0.21306000  0.28574100  1
  H  H12  1  0.81225700  0.43304900  0.40757300  1
  H  H13  1  0.79042200  0.71120800  0.47118400  1
  H  H14  1  0.78338800  0.04154800  0.44388500  1
  H  H15  1  0.09924200  0.35035600  0.23758700  1
