# generated using pymatgen
data_Sr2NbH17
_symmetry_space_group_name_H-M   'P 1'
_cell_length_a   4.00174600
_cell_length_b   6.07254560
_cell_length_c   7.27988218
_cell_angle_alpha   93.32088517
_cell_angle_beta   95.69914517
_cell_angle_gamma   97.24583413
_symmetry_Int_Tables_number   1
_chemical_formula_structural   Sr2NbH17
_chemical_formula_sum   'Sr2 Nb1 H17'
_cell_volume   174.18128765
_cell_formula_units_Z   1
loop_
 _symmetry_equiv_pos_site_id
 _symmetry_equiv_pos_as_xyz
  1  'x, y, z'
loop_
 _atom_site_type_symbol
 _atom_site_label
 _atom_site_symmetry_multiplicity
 _atom_site_fract_x
 _atom_site_fract_y
 _atom_site_fract_z
 _atom_site_occupancy
  H  H0  1  0.76833100  0.67764400  0.15057000  1
  H  H1  1  0.73945400  0.55976000  0.15664800  1
  H  H2  1  0.47061700  0.21519900  0.76075300  1
  H  H3  1  0.25454400  0.21964000  0.76180300  1
  H  H4  1  0.59835700  0.06844000  0.05777200  1
  H  H5  1  0.41539500  0.11800300  0.06638100  1
  H  H6  1  0.61885200  0.56166300  0.91345300  1
  H  H7  1  0.58824200  0.50937800  0.83346900  1
  H  H8  1  0.54005500  0.33503000  0.97605900  1
  H  H9  1  0.77451800  0.93540400  0.89701500  1
  Nb  Nb10  1  0.58990200  0.01675100  0.33033800  1
  H  H11  1  0.37715100  0.78374100  0.23339100  1
  H  H12  1  0.74115600  0.11393900  0.54982700  1
  H  H13  1  0.66426000  0.30237500  0.27308800  1
  H  H14  1  0.99283200  0.86780800  0.39457700  1
  H  H15  1  0.07879700  0.15805400  0.26002600  1
  H  H16  1  0.52817700  0.79738600  0.52564900  1
  H  H17  1  0.93971400  0.50080200  0.63489900  1
  Sr  Sr18  1  0.15274500  0.83216600  0.73904100  1
  Sr  Sr19  1  0.32264000  0.45411600  0.43302700  1
