# generated using pymatgen
data_Sr2NbH11
_symmetry_space_group_name_H-M   'P 1'
_cell_length_a   3.80538700
_cell_length_b   5.73849225
_cell_length_c   6.58885336
_cell_angle_alpha   89.49588865
_cell_angle_beta   74.73640849
_cell_angle_gamma   85.82236330
_symmetry_Int_Tables_number   1
_chemical_formula_structural   Sr2NbH11
_chemical_formula_sum   'Sr2 Nb1 H11'
_cell_volume   138.42968297
_cell_formula_units_Z   1
loop_
 _symmetry_equiv_pos_site_id
 _symmetry_equiv_pos_as_xyz
  1  'x, y, z'
loop_
 _atom_site_type_symbol
 _atom_site_label
 _atom_site_symmetry_multiplicity
 _atom_site_fract_x
 _atom_site_fract_y
 _atom_site_fract_z
 _atom_site_occupancy
  H  H0  1  0.27552700  0.47538100  0.19123900  1
  H  H1  1  0.20352200  0.38261900  0.13278900  1
  H  H2  1  0.46817200  0.75129900  0.16089400  1
  H  H3  1  0.16576800  0.10355500  0.68962600  1
  H  H4  1  0.50822600  0.88054000  0.58262100  1
  H  H5  1  0.05491300  0.86580300  0.55391500  1
  H  H6  1  0.41067700  0.03463700  0.88583900  1
  H  H7  1  0.30528000  0.15956400  0.41006800  1
  H  H8  1  0.14139500  0.41952600  0.63512200  1
  H  H9  1  0.99209300  0.85890200  0.86963300  1
  H  H10  1  0.93233500  0.26551000  0.94185200  1
  Nb  Nb11  1  0.64754400  0.21101600  0.62261400  1
  Sr  Sr12  1  0.56208500  0.59595600  0.81919300  1
  Sr  Sr13  1  0.89482700  0.98862400  0.23455000  1
