# generated using pymatgen
data_SrNbH13
_symmetry_space_group_name_H-M   'P 1'
_cell_length_a   4.04412100
_cell_length_b   5.35073975
_cell_length_c   5.51489383
_cell_angle_alpha   78.39456968
_cell_angle_beta   88.53915043
_cell_angle_gamma   89.22954611
_symmetry_Int_Tables_number   1
_chemical_formula_structural   SrNbH13
_chemical_formula_sum   'Sr1 Nb1 H13'
_cell_volume   116.85508932
_cell_formula_units_Z   1
loop_
 _symmetry_equiv_pos_site_id
 _symmetry_equiv_pos_as_xyz
  1  'x, y, z'
loop_
 _atom_site_type_symbol
 _atom_site_label
 _atom_site_symmetry_multiplicity
 _atom_site_fract_x
 _atom_site_fract_y
 _atom_site_fract_z
 _atom_site_occupancy
  H  H0  1  0.89680600  0.39233100  0.07172000  1
  H  H1  1  0.92573500  0.51275200  0.94621000  1
  H  H2  1  0.44121200  0.38842600  0.76370900  1
  H  H3  1  0.42738700  0.25618800  0.89330200  1
  H  H4  1  0.86115300  0.03614900  0.68897400  1
  H  H5  1  0.97044300  0.08942300  0.83108900  1
  H  H6  1  0.25145200  0.02865300  0.93602200  1
  H  H7  1  0.43019800  0.84200400  0.96028100  1
  H  H8  1  0.03876700  0.82797400  0.66654600  1
  H  H9  1  0.92659200  0.21542000  0.46227600  1
  Nb  Nb10  1  0.36177300  0.08456100  0.62321200  1
  H  H11  1  0.52105800  0.76310000  0.63126400  1
  H  H12  1  0.37344200  0.06381900  0.29715600  1
  H  H13  1  0.41283000  0.43824200  0.37912200  1
  Sr  Sr14  1  0.90882800  0.75254800  0.26589900  1
