# generated using pymatgen
data_SrNbH14
_symmetry_space_group_name_H-M   'P 1'
_cell_length_a   4.45756900
_cell_length_b   5.02012733
_cell_length_c   5.60425608
_cell_angle_alpha   94.49600633
_cell_angle_beta   100.62316961
_cell_angle_gamma   91.02884226
_symmetry_Int_Tables_number   1
_chemical_formula_structural   SrNbH14
_chemical_formula_sum   'Sr1 Nb1 H14'
_cell_volume   122.81366671
_cell_formula_units_Z   1
loop_
 _symmetry_equiv_pos_site_id
 _symmetry_equiv_pos_as_xyz
  1  'x, y, z'
loop_
 _atom_site_type_symbol
 _atom_site_label
 _atom_site_symmetry_multiplicity
 _atom_site_fract_x
 _atom_site_fract_y
 _atom_site_fract_z
 _atom_site_occupancy
  H  H0  1  0.89439400  0.76828200  0.32120800  1
  H  H1  1  0.82236200  0.64141900  0.21762700  1
  H  H2  1  0.06772800  0.39558400  0.03359400  1
  H  H3  1  0.21627800  0.41778100  0.16165900  1
  H  H4  1  0.32175500  0.12028800  0.14986000  1
  Sr  Sr5  1  0.28348800  0.85122700  0.00724700  1
  H  H6  1  0.78731400  0.18118300  0.41511000  1
  H  H7  1  0.66575200  0.29616700  0.36273500  1
  H  H8  1  0.27995600  0.13356000  0.63290200  1
  Nb  Nb9  1  0.53367600  0.22795800  0.64053700  1
  H  H10  1  0.81718100  0.08577500  0.76484600  1
  H  H11  1  0.21020300  0.47888500  0.57477900  1
  H  H12  1  0.35785900  0.57535400  0.55730400  1
  H  H13  1  0.53144400  0.87963200  0.48886100  1
  H  H14  1  0.52929300  0.38579400  0.94479000  1
  H  H15  1  0.81021900  0.54948800  0.74046400  1
