# generated using pymatgen
data_Sr3(NbH10)2
_symmetry_space_group_name_H-M   'P 1'
_cell_length_a   5.65460500
_cell_length_b   5.88879948
_cell_length_c   7.21278491
_cell_angle_alpha   97.24238627
_cell_angle_beta   93.63040910
_cell_angle_gamma   102.41793937
_symmetry_Int_Tables_number   1
_chemical_formula_structural   Sr3(NbH10)2
_chemical_formula_sum   'Sr3 Nb2 H20'
_cell_volume   231.67114933
_cell_formula_units_Z   1
loop_
 _symmetry_equiv_pos_site_id
 _symmetry_equiv_pos_as_xyz
  1  'x, y, z'
loop_
 _atom_site_type_symbol
 _atom_site_label
 _atom_site_symmetry_multiplicity
 _atom_site_fract_x
 _atom_site_fract_y
 _atom_site_fract_z
 _atom_site_occupancy
  H  H0  1  0.06794600  0.68897400  0.90943300  1
  H  H1  1  0.10355900  0.61157900  0.81712200  1
  H  H2  1  0.35201500  0.78460400  0.71679600  1
  H  H3  1  0.72821600  0.32862700  0.03216100  1
  H  H4  1  0.68516900  0.12953800  0.85873700  1
  H  H5  1  0.85357700  0.09207100  0.03447700  1
  H  H6  1  0.33883900  0.10663900  0.31576900  1
  H  H7  1  0.14118200  0.27889800  0.36747600  1
  H  H8  1  0.29687800  0.71778900  0.18332600  1
  H  H9  1  0.39166600  0.82820200  0.16558700  1
  H  H10  1  0.54549500  0.07249900  0.12107400  1
  H  H11  1  0.06051200  0.47499500  0.17415900  1
  Nb  Nb12  1  0.84328500  0.30024000  0.29345200  1
  H  H13  1  0.63473600  0.43497400  0.30712600  1
  H  H14  1  0.76519600  0.02651400  0.34798700  1
  Nb  Nb15  1  0.46676300  0.38942600  0.53579000  1
  H  H16  1  0.35076600  0.40991800  0.69997400  1
  H  H17  1  0.70961300  0.29729100  0.57173000  1
  H  H18  1  0.25580100  0.13904100  0.61218800  1
  H  H19  1  0.52615600  0.64941200  0.44932300  1
  Sr  Sr20  1  0.15727800  0.10494200  0.85236100  1
  Sr  Sr21  1  0.64803100  0.56790100  0.85542200  1
  H  H22  1  0.30867500  0.42432900  0.98703900  1
  Sr  Sr23  1  0.93913000  0.79983200  0.17798000  1
  H  H24  1  0.00982300  0.62787100  0.47265200  1
