# generated using pymatgen
data_SrNb2H17
_symmetry_space_group_name_H-M   'P 1'
_cell_length_a   4.69793700
_cell_length_b   5.28404386
_cell_length_c   6.00589707
_cell_angle_alpha   79.29005558
_cell_angle_beta   88.29167186
_cell_angle_gamma   103.73658594
_symmetry_Int_Tables_number   1
_chemical_formula_structural   SrNb2H17
_chemical_formula_sum   'Sr1 Nb2 H17'
_cell_volume   141.87624135
_cell_formula_units_Z   1
loop_
 _symmetry_equiv_pos_site_id
 _symmetry_equiv_pos_as_xyz
  1  'x, y, z'
loop_
 _atom_site_type_symbol
 _atom_site_label
 _atom_site_symmetry_multiplicity
 _atom_site_fract_x
 _atom_site_fract_y
 _atom_site_fract_z
 _atom_site_occupancy
  H  H0  1  0.88128800  0.02698200  0.61274700  1
  H  H1  1  0.94503000  0.09204400  0.76841100  1
  H  H2  1  0.45691900  0.10195700  0.90775400  1
  H  H3  1  0.56281800  0.17791000  0.95229800  1
  H  H4  1  0.08903600  0.92860600  0.99443900  1
  H  H5  1  0.16738500  0.85661200  0.91014900  1
  H  H6  1  0.08903600  0.42860600  0.99443900  1
  H  H7  1  0.16738500  0.35661200  0.91014900  1
  H  H8  1  0.45691900  0.60195700  0.90775400  1
  H  H9  1  0.56281800  0.67791000  0.95229800  1
  Nb  Nb10  1  0.56057500  0.60394400  0.74393900  1
  H  H11  1  0.65108900  0.48713800  0.03360900  1
  Nb  Nb12  1  0.02385300  0.47081900  0.56243700  1
  H  H13  1  0.94503000  0.59204400  0.76841100  1
  H  H14  1  0.70810400  0.51512900  0.48069000  1
  H  H15  1  0.35752900  0.46946900  0.49676600  1
  H  H16  1  0.01386600  0.43641900  0.28695600  1
  H  H17  1  0.34639000  0.81416700  0.59229200  1
  H  H18  1  0.16776900  0.85129700  0.30971900  1
  Sr  Sr19  1  0.72437800  0.00733400  0.21075300  1
