# generated using pymatgen
data_Sr2NbH13
_symmetry_space_group_name_H-M   'P 1'
_cell_length_a   3.71222700
_cell_length_b   6.22512547
_cell_length_c   6.59187568
_cell_angle_alpha   92.09030438
_cell_angle_beta   99.01231572
_cell_angle_gamma   90.11466296
_symmetry_Int_Tables_number   1
_chemical_formula_structural   Sr2NbH13
_chemical_formula_sum   'Sr2 Nb1 H13'
_cell_volume   150.34688052
_cell_formula_units_Z   1
loop_
 _symmetry_equiv_pos_site_id
 _symmetry_equiv_pos_as_xyz
  1  'x, y, z'
loop_
 _atom_site_type_symbol
 _atom_site_label
 _atom_site_symmetry_multiplicity
 _atom_site_fract_x
 _atom_site_fract_y
 _atom_site_fract_z
 _atom_site_occupancy
  H  H0  1  0.30335800  0.91936300  0.17217500  1
  H  H1  1  0.90075700  0.95655600  0.18798100  1
  H  H2  1  0.64263700  0.81610200  0.81930300  1
  H  H3  1  0.70004900  0.83640800  0.94364500  1
  H  H4  1  0.86050600  0.86505700  0.84303000  1
  H  H5  1  0.12144100  0.50742700  0.04574600  1
  H  H6  1  0.34591900  0.50988200  0.04416200  1
  Nb  Nb7  1  0.86997900  0.66457000  0.07732300  1
  H  H8  1  0.89481900  0.36899800  0.16873500  1
  H  H9  1  0.08932600  0.57871800  0.71934300  1
  H  H10  1  0.05068500  0.68167300  0.65447300  1
  H  H11  1  0.86490100  0.64750200  0.37743700  1
  Sr  Sr12  1  0.16388700  0.12297700  0.87760900  1
  Sr  Sr13  1  0.43870800  0.45291400  0.43865100  1
  H  H14  1  0.45936200  0.92739900  0.49738600  1
  H  H15  1  0.62077300  0.36490500  0.79410500  1
