# generated using pymatgen
data_SrNbH7
_symmetry_space_group_name_H-M   'P 1'
_cell_length_a   3.14704300
_cell_length_b   5.09797590
_cell_length_c   5.36864529
_cell_angle_alpha   68.25997085
_cell_angle_beta   88.94509052
_cell_angle_gamma   88.67462123
_symmetry_Int_Tables_number   1
_chemical_formula_structural   SrNbH7
_chemical_formula_sum   'Sr1 Nb1 H7'
_cell_volume   79.97999621
_cell_formula_units_Z   1
loop_
 _symmetry_equiv_pos_site_id
 _symmetry_equiv_pos_as_xyz
  1  'x, y, z'
loop_
 _atom_site_type_symbol
 _atom_site_label
 _atom_site_symmetry_multiplicity
 _atom_site_fract_x
 _atom_site_fract_y
 _atom_site_fract_z
 _atom_site_occupancy
  H  H0  1  0.32329100  0.10499500  0.87619300  1
  H  H1  1  0.46746800  0.00893600  0.97151700  1
  H  H2  1  0.89286900  0.12949800  0.60921200  1
  H  H3  1  0.40523000  0.26078400  0.47434600  1
  Nb  Nb4  1  0.95336800  0.40319300  0.28921800  1
  H  H5  1  0.97918000  0.06433000  0.29006900  1
  H  H6  1  0.42194800  0.37701100  0.09741800  1
  H  H7  1  0.91677800  0.67261000  0.95360100  1
  Sr  Sr8  1  0.42660900  0.78501800  0.64874100  1
