# generated using pymatgen
data_Sr2NbH11
_symmetry_space_group_name_H-M   'P 1'
_cell_length_a   3.86227000
_cell_length_b   5.60792245
_cell_length_c   6.65526830
_cell_angle_alpha   88.21189615
_cell_angle_beta   73.92457201
_cell_angle_gamma   88.69728984
_symmetry_Int_Tables_number   1
_chemical_formula_structural   Sr2NbH11
_chemical_formula_sum   'Sr2 Nb1 H11'
_cell_volume   138.42967201
_cell_formula_units_Z   1
loop_
 _symmetry_equiv_pos_site_id
 _symmetry_equiv_pos_as_xyz
  1  'x, y, z'
loop_
 _atom_site_type_symbol
 _atom_site_label
 _atom_site_symmetry_multiplicity
 _atom_site_fract_x
 _atom_site_fract_y
 _atom_site_fract_z
 _atom_site_occupancy
  H  H0  1  0.85051400  0.51302100  0.71769500  1
  H  H1  1  0.04334800  0.50380400  0.72825600  1
  H  H2  1  0.38478700  0.27600900  0.85112200  1
  Sr  Sr3  1  0.64135400  0.90373000  0.33082400  1
  H  H4  1  0.31788800  0.13194000  0.43418900  1
  H  H5  1  0.77356200  0.15351400  0.45400100  1
  H  H6  1  0.37985500  0.96523600  0.14260800  1
  H  H7  1  0.66045500  0.57885800  0.39120600  1
  H  H8  1  0.50682800  0.83831200  0.61789200  1
  H  H9  1  0.81555600  0.15609300  0.13820500  1
  H  H10  1  0.16022000  0.79134000  0.41494200  1
  H  H11  1  0.84083400  0.73549500  0.07824100  1
  Nb  Nb12  1  0.25373600  0.42466800  0.19116700  1
  Sr  Sr13  1  0.92635900  0.03504700  0.77969600  1
