# generated using pymatgen
data_SrNbH14
_symmetry_space_group_name_H-M   'P 1'
_cell_length_a   3.76351600
_cell_length_b   5.62992399
_cell_length_c   5.84123498
_cell_angle_alpha   100.46853652
_cell_angle_beta   90.69476784
_cell_angle_gamma   90.46195974
_symmetry_Int_Tables_number   1
_chemical_formula_structural   SrNbH14
_chemical_formula_sum   'Sr1 Nb1 H14'
_cell_volume   121.69020748
_cell_formula_units_Z   1
loop_
 _symmetry_equiv_pos_site_id
 _symmetry_equiv_pos_as_xyz
  1  'x, y, z'
loop_
 _atom_site_type_symbol
 _atom_site_label
 _atom_site_symmetry_multiplicity
 _atom_site_fract_x
 _atom_site_fract_y
 _atom_site_fract_z
 _atom_site_occupancy
  H  H0  1  0.43915100  0.16201000  0.24036000  1
  H  H1  1  0.27815400  0.15068900  0.30879600  1
  H  H2  1  0.56980200  0.16581300  0.01692900  1
  H  H3  1  0.14762100  0.86505700  0.88577100  1
  H  H4  1  0.07426500  0.83656100  0.03100000  1
  Nb  Nb5  1  0.13814800  0.66457000  0.65147900  1
  H  H6  1  0.11330800  0.36899800  0.56006600  1
  H  H7  1  0.14322600  0.64750200  0.35136400  1
  H  H8  1  0.02955700  0.41323200  0.14612100  1
  H  H9  1  0.55878800  0.71223400  0.21350100  1
  H  H10  1  0.57261300  0.57999600  0.08390800  1
  H  H11  1  0.40686400  0.51566500  0.85370100  1
  H  H12  1  0.94530200  0.50936600  0.86789900  1
  H  H13  1  0.10737000  0.95655600  0.54082000  1
  Sr  Sr14  1  0.63490400  0.16935200  0.69845600  1
  H  H15  1  0.62733000  0.72545100  0.58575500  1
