# generated using pymatgen
data_Sr2NbH8
_symmetry_space_group_name_H-M   'P 1'
_cell_length_a   3.64742000
_cell_length_b   5.78243219
_cell_length_c   5.92218286
_cell_angle_alpha   71.05714944
_cell_angle_beta   81.00190526
_cell_angle_gamma   88.93484394
_symmetry_Int_Tables_number   1
_chemical_formula_structural   Sr2NbH8
_chemical_formula_sum   'Sr2 Nb1 H8'
_cell_volume   116.61689714
_cell_formula_units_Z   1
loop_
 _symmetry_equiv_pos_site_id
 _symmetry_equiv_pos_as_xyz
  1  'x, y, z'
loop_
 _atom_site_type_symbol
 _atom_site_label
 _atom_site_symmetry_multiplicity
 _atom_site_fract_x
 _atom_site_fract_y
 _atom_site_fract_z
 _atom_site_occupancy
  H  H0  1  0.93867400  0.66689300  0.25701900  1
  H  H1  1  0.16580700  0.69341400  0.97535400  1
  H  H2  1  0.09464400  0.30255900  0.07244600  1
  Sr  Sr3  1  0.27610000  0.25467900  0.87321100  1
  H  H4  1  0.91456900  0.04683000  0.30199900  1
  Nb  Nb5  1  0.84209700  0.74954000  0.53185900  1
  H  H6  1  0.82098100  0.41214700  0.63269600  1
  H  H7  1  0.40533400  0.76098600  0.34835700  1
  H  H8  1  0.32051200  0.91356800  0.58563900  1
  H  H9  1  0.76174600  0.96003300  0.97729800  1
  Sr  Sr10  1  0.40757300  0.32686300  0.38717500  1
