# generated using pymatgen
data_Sr2NbH7
_symmetry_space_group_name_H-M   'P 1'
_cell_length_a   2.98809300
_cell_length_b   5.78205124
_cell_length_c   13.08209217
_cell_angle_alpha   86.60700891
_cell_angle_beta   87.41711937
_cell_angle_gamma   88.16279798
_symmetry_Int_Tables_number   1
_chemical_formula_structural   Sr2NbH7
_chemical_formula_sum   'Sr2 Nb1 H7'
_cell_volume   225.29997333
_cell_formula_units_Z   1
loop_
 _symmetry_equiv_pos_site_id
 _symmetry_equiv_pos_as_xyz
  1  'x, y, z'
loop_
 _atom_site_type_symbol
 _atom_site_label
 _atom_site_symmetry_multiplicity
 _atom_site_fract_x
 _atom_site_fract_y
 _atom_site_fract_z
 _atom_site_occupancy
  H  H0  1  0.50716900  0.60373600  0.88738600  1
  H  H1  1  0.55024500  0.59659700  0.80846900  1
  H  H2  1  0.71333200  0.79923200  0.87821600  1
  Nb  Nb3  1  0.42116800  0.84259700  0.78186500  1
  H  H4  1  0.07821600  0.94266900  0.00600700  1
  H  H5  1  0.22643500  0.96210100  0.17495600  1
  Sr  Sr6  1  0.87188500  0.21166400  0.85653800  1
  H  H7  1  0.14747700  0.64640900  0.62268000  1
  H  H8  1  0.23615600  0.41280500  0.11328800  1
  Sr  Sr9  1  0.34423500  0.54121700  0.32128400  1
