# generated using pymatgen
data_Sr(NbH6)3
_symmetry_space_group_name_H-M   'P 1'
_cell_length_a   4.28776700
_cell_length_b   5.60578242
_cell_length_c   6.92357056
_cell_angle_alpha   86.82754882
_cell_angle_beta   83.27621950
_cell_angle_gamma   74.76388554
_symmetry_Int_Tables_number   1
_chemical_formula_structural   Sr(NbH6)3
_chemical_formula_sum   'Sr1 Nb3 H18'
_cell_volume   159.41075768
_cell_formula_units_Z   1
loop_
 _symmetry_equiv_pos_site_id
 _symmetry_equiv_pos_as_xyz
  1  'x, y, z'
loop_
 _atom_site_type_symbol
 _atom_site_label
 _atom_site_symmetry_multiplicity
 _atom_site_fract_x
 _atom_site_fract_y
 _atom_site_fract_z
 _atom_site_occupancy
  H  H0  1  0.44217000  0.04070000  0.09992200  1
  H  H1  1  0.43658500  0.08856500  0.99099700  1
  H  H2  1  0.73233600  0.89955500  0.00125900  1
  H  H3  1  0.46501200  0.80632000  0.41693100  1
  H  H4  1  0.45038100  0.60872700  0.36156800  1
  H  H5  1  0.56452600  0.77015000  0.67824200  1
  H  H6  1  0.51047700  0.57227600  0.67227300  1
  H  H7  1  0.53501800  0.01418800  0.67459300  1
  H  H8  1  0.24272200  0.10552500  0.56482100  1
  Nb  Nb9  1  0.91112500  0.42329200  0.58876500  1
  H  H10  1  0.10672400  0.47373200  0.74197500  1
  Nb  Nb11  1  0.45549800  0.31715600  0.53120300  1
  H  H12  1  0.24482200  0.38880800  0.36807800  1
  H  H13  1  0.84214800  0.19048500  0.48421800  1
  H  H14  1  0.65840400  0.10065000  0.29702200  1
  H  H15  1  0.91146000  0.79625300  0.29930600  1
  Nb  Nb16  1  0.04005000  0.78596500  0.53595700  1
  H  H17  1  0.08730800  0.87473600  0.78278400  1
  H  H18  1  0.31830200  0.48845200  0.09971700  1
  H  H19  1  0.37368500  0.47183800  0.98150900  1
  Sr  Sr20  1  0.97732900  0.32692200  0.09712100  1
  H  H21  1  0.78759300  0.29156800  0.85783800  1
