# generated using pymatgen
data_SrNbH14
_symmetry_space_group_name_H-M   'P 1'
_cell_length_a   3.17635600
_cell_length_b   5.81423140
_cell_length_c   6.82392817
_cell_angle_alpha   79.38409894
_cell_angle_beta   79.74985471
_cell_angle_gamma   84.93657561
_symmetry_Int_Tables_number   1
_chemical_formula_structural   SrNbH14
_chemical_formula_sum   'Sr1 Nb1 H14'
_cell_volume   121.69019684
_cell_formula_units_Z   1
loop_
 _symmetry_equiv_pos_site_id
 _symmetry_equiv_pos_as_xyz
  1  'x, y, z'
loop_
 _atom_site_type_symbol
 _atom_site_label
 _atom_site_symmetry_multiplicity
 _atom_site_fract_x
 _atom_site_fract_y
 _atom_site_fract_z
 _atom_site_occupancy
  H  H0  1  0.93867400  0.66689300  0.26759600  1
  H  H1  1  0.40533400  0.76098600  0.35893400  1
  H  H2  1  0.36723800  0.10765000  0.86073600  1
  H  H3  1  0.13323200  0.10571100  0.86344900  1
  H  H4  1  0.96048800  0.50282000  0.98444100  1
  H  H5  1  0.76995200  0.56449400  0.95328400  1
  H  H6  1  0.16977400  0.43189000  0.00776000  1
  H  H7  1  0.09464400  0.30255900  0.08302300  1
  H  H8  1  0.75336700  0.87094200  0.80483500  1
  H  H9  1  0.72966400  0.71680400  0.87176100  1
  Nb  Nb10  1  0.84209700  0.74954000  0.54243600  1
  H  H11  1  0.32051200  0.91356800  0.59621600  1
  H  H12  1  0.28542200  0.59962600  0.71758700  1
  H  H13  1  0.82098100  0.41214700  0.64327300  1
  H  H14  1  0.91456900  0.04683000  0.31257600  1
  Sr  Sr15  1  0.40757300  0.32686300  0.39775100  1
