# generated using pymatgen
data_SrNbH12
_symmetry_space_group_name_H-M   'P 1'
_cell_length_a   3.59074000
_cell_length_b   5.35391550
_cell_length_c   6.18023749
_cell_angle_alpha   89.15968386
_cell_angle_beta   74.62106653
_cell_angle_gamma   87.16264389
_symmetry_Int_Tables_number   1
_chemical_formula_structural   SrNbH12
_chemical_formula_sum   'Sr1 Nb1 H12'
_cell_volume   114.41719808
_cell_formula_units_Z   1
loop_
 _symmetry_equiv_pos_site_id
 _symmetry_equiv_pos_as_xyz
  1  'x, y, z'
loop_
 _atom_site_type_symbol
 _atom_site_label
 _atom_site_symmetry_multiplicity
 _atom_site_fract_x
 _atom_site_fract_y
 _atom_site_fract_z
 _atom_site_occupancy
  Sr  Sr0  1  0.21445300  0.98862400  0.23455000  1
  H  H1  1  0.93441300  0.83321800  0.38886400  1
  H  H2  1  0.59515200  0.47538100  0.19123900  1
  H  H3  1  0.52314800  0.38261900  0.13278900  1
  H  H4  1  0.97835800  0.58555600  0.98381900  1
  H  H5  1  0.25196100  0.26551000  0.94185200  1
  H  H6  1  0.62490500  0.15956400  0.41006800  1
  H  H7  1  0.91421700  0.25874000  0.45658100  1
  Nb  Nb8  1  0.61067600  0.05526300  0.66624800  1
  H  H9  1  0.37453900  0.86580300  0.55391500  1
  H  H10  1  0.85698700  0.25352400  0.77421500  1
  H  H11  1  0.31171800  0.85890200  0.86963300  1
  H  H12  1  0.75915400  0.68796800  0.70545700  1
  H  H13  1  0.46102100  0.41952600  0.63512200  1
