# generated using pymatgen
data_Sr(NbH6)2
_symmetry_space_group_name_H-M   'P 1'
_cell_length_a   5.00695400
_cell_length_b   5.14478592
_cell_length_c   5.23564267
_cell_angle_alpha   92.73141752
_cell_angle_beta   111.63948628
_cell_angle_gamma   113.35512290
_symmetry_Int_Tables_number   1
_chemical_formula_structural   Sr(NbH6)2
_chemical_formula_sum   'Sr1 Nb2 H12'
_cell_volume   112.08323259
_cell_formula_units_Z   1
loop_
 _symmetry_equiv_pos_site_id
 _symmetry_equiv_pos_as_xyz
  1  'x, y, z'
loop_
 _atom_site_type_symbol
 _atom_site_label
 _atom_site_symmetry_multiplicity
 _atom_site_fract_x
 _atom_site_fract_y
 _atom_site_fract_z
 _atom_site_occupancy
  H  H0  1  0.87516200  0.81004700  0.06967000  1
  H  H1  1  0.96766900  0.79247800  0.96146100  1
  Nb  Nb2  1  0.97714100  0.48188200  0.95467200  1
  H  H3  1  0.21570500  0.36241700  0.66477300  1
  H  H4  1  0.95430300  0.21184000  0.72790200  1
  H  H5  1  0.76616700  0.52139100  0.63223000  1
  H  H6  1  0.51554000  0.28947800  0.68736600  1
  H  H7  1  0.81225700  0.32080000  0.38675100  1
  H  H8  1  0.43666300  0.10081100  0.26491900  1
  Nb  Nb9  1  0.70786600  0.06205400  0.12309700  1
  H  H10  1  0.46051100  0.72758200  0.10125200  1
  H  H11  1  0.09924200  0.23810600  0.21676500  1
  H  H12  1  0.67034000  0.41648100  0.07466500  1
  H  H13  1  0.78338800  0.92929900  0.42306300  1
  Sr  Sr14  1  0.32895300  0.72954400  0.55506200  1
