# generated using pymatgen
data_Sr2NbH15
_symmetry_space_group_name_H-M   'P 1'
_cell_length_a   5.22463800
_cell_length_b   5.25424994
_cell_length_c   6.15294192
_cell_angle_alpha   92.09381185
_cell_angle_beta   104.75077998
_cell_angle_gamma   95.49629128
_symmetry_Int_Tables_number   1
_chemical_formula_structural   Sr2NbH15
_chemical_formula_sum   'Sr2 Nb1 H15'
_cell_volume   162.26408740
_cell_formula_units_Z   1
loop_
 _symmetry_equiv_pos_site_id
 _symmetry_equiv_pos_as_xyz
  1  'x, y, z'
loop_
 _atom_site_type_symbol
 _atom_site_label
 _atom_site_symmetry_multiplicity
 _atom_site_fract_x
 _atom_site_fract_y
 _atom_site_fract_z
 _atom_site_occupancy
  H  H0  1  0.51155900  0.09755200  0.43915100  1
  H  H1  1  0.57999500  0.10887400  0.27815400  1
  H  H2  1  0.68154100  0.89172100  0.29159300  1
  Nb  Nb3  1  0.92267700  0.59499200  0.13814800  1
  H  H4  1  0.81201900  0.30300700  0.10737000  1
  H  H5  1  0.62256300  0.61206100  0.14322600  1
  H  H6  1  0.15697000  0.39450600  0.14762100  1
  H  H7  1  0.25020400  0.83192900  0.84201000  1
  H  H8  1  0.13909800  0.75019700  0.94530200  1
  H  H9  1  0.16884800  0.93613400  0.07408400  1
  H  H10  1  0.25020400  0.83192900  0.34201000  1
  H  H11  1  0.12490000  0.74389700  0.40686400  1
  H  H12  1  0.16884800  0.93613400  0.57408400  1
  Sr  Sr13  1  0.96965400  0.09021000  0.63490400  1
  H  H14  1  0.33597500  0.14696000  0.75630000  1
  Sr  Sr15  1  0.41751300  0.51776800  0.63584000  1
  H  H16  1  0.68154100  0.89172100  0.79159300  1
  H  H17  1  0.85695400  0.53411100  0.62733000  1
