# generated using pymatgen
data_Sr2NbH7
_symmetry_space_group_name_H-M   'P 1'
_cell_length_a   6.02889800
_cell_length_b   6.69222967
_cell_length_c   6.82585981
_cell_angle_alpha   116.15685440
_cell_angle_beta   93.93770270
_cell_angle_gamma   109.50526640
_symmetry_Int_Tables_number   1
_chemical_formula_structural   Sr2NbH7
_chemical_formula_sum   'Sr2 Nb1 H7'
_cell_volume   225.29997782
_cell_formula_units_Z   1
loop_
 _symmetry_equiv_pos_site_id
 _symmetry_equiv_pos_as_xyz
  1  'x, y, z'
loop_
 _atom_site_type_symbol
 _atom_site_label
 _atom_site_symmetry_multiplicity
 _atom_site_fract_x
 _atom_site_fract_y
 _atom_site_fract_z
 _atom_site_occupancy
  H  H0  1  0.70763600  0.12238600  0.09593600  1
  H  H1  1  0.81604100  0.13905400  0.91964000  1
  H  H2  1  0.91486000  0.71227500  0.54834200  1
  Sr  Sr3  1  0.80102600  0.69608800  0.33131000  1
  H  H4  1  0.14326800  0.02775900  0.53858000  1
  H  H5  1  0.27796500  0.20820500  0.69815400  1
  H  H6  1  0.39587300  0.43843900  0.69438100  1
  Sr  Sr7  1  0.31756500  0.92016000  0.41222200  1
  Nb  Nb8  1  0.91545200  0.08578100  0.61178500  1
  H  H9  1  0.25913300  0.37923300  0.22207900  1
