# generated using pymatgen
data_Sr2NbH14
_symmetry_space_group_name_H-M   'P 1'
_cell_length_a   5.09985900
_cell_length_b   5.48879902
_cell_length_c   5.83439670
_cell_angle_alpha   100.20540534
_cell_angle_beta   95.03708455
_cell_angle_gamma   101.35907533
_symmetry_Int_Tables_number   1
_chemical_formula_structural   Sr2NbH14
_chemical_formula_sum   'Sr2 Nb1 H14'
_cell_volume   156.30550173
_cell_formula_units_Z   1
loop_
 _symmetry_equiv_pos_site_id
 _symmetry_equiv_pos_as_xyz
  1  'x, y, z'
loop_
 _atom_site_type_symbol
 _atom_site_label
 _atom_site_symmetry_multiplicity
 _atom_site_fract_x
 _atom_site_fract_y
 _atom_site_fract_z
 _atom_site_occupancy
  Sr  Sr0  1  0.53737000  0.57576500  0.78091400  1
  H  H1  1  0.32947600  0.53134200  0.55322700  1
  H  H2  1  0.84057900  0.58878000  0.29553400  1
  H  H3  1  0.70185000  0.76649100  0.10920900  1
  H  H4  1  0.49767300  0.41242700  0.19224900  1
  H  H5  1  0.63612500  0.13062300  0.09631300  1
  H  H6  1  0.09337900  0.74163500  0.90917900  1
  H  H7  1  0.07568500  0.48015500  0.01033500  1
  H  H8  1  0.60458000  0.14232000  0.62650300  1
  H  H9  1  0.72146900  0.19268900  0.52136300  1
  H  H10  1  0.75313000  0.12012200  0.75456800  1
  H  H11  1  0.37020100  0.79247400  0.30590800  1
  H  H12  1  0.27898800  0.96123000  0.21306900  1
  Nb  Nb13  1  0.64440200  0.82536800  0.47358400  1
  H  H14  1  0.99044800  0.97449700  0.44099800  1
  Sr  Sr15  1  0.06215300  0.17714600  0.14848400  1
  H  H16  1  0.29156500  0.11033200  0.84337200  1
