# generated using pymatgen
data_Sr2Nb2H17
_symmetry_space_group_name_H-M   'P 1'
_cell_length_a   5.35320900
_cell_length_b   5.65236617
_cell_length_c   6.21421460
_cell_angle_alpha   86.47238556
_cell_angle_beta   85.63266567
_cell_angle_gamma   89.26967868
_symmetry_Int_Tables_number   1
_chemical_formula_structural   Sr2Nb2H17
_chemical_formula_sum   'Sr2 Nb2 H17'
_cell_volume   187.12419773
_cell_formula_units_Z   1
loop_
 _symmetry_equiv_pos_site_id
 _symmetry_equiv_pos_as_xyz
  1  'x, y, z'
loop_
 _atom_site_type_symbol
 _atom_site_label
 _atom_site_symmetry_multiplicity
 _atom_site_fract_x
 _atom_site_fract_y
 _atom_site_fract_z
 _atom_site_occupancy
  H  H0  1  0.03082500  0.59609400  0.58174100  1
  H  H1  1  0.11233800  0.69268900  0.41104300  1
  Nb  Nb2  1  0.74162200  0.64478700  0.46740300  1
  H  H3  1  0.57615100  0.01823400  0.10045000  1
  H  H4  1  0.54741900  0.93975700  0.86354400  1
  H  H5  1  0.54722400  0.66465600  0.75591200  1
  H  H6  1  0.28008500  0.23360800  0.27346100  1
  H  H7  1  0.60136200  0.22679100  0.29528200  1
  H  H8  1  0.69172600  0.44282700  0.02883500  1
  H  H9  1  0.89382800  0.58657800  0.92810100  1
  H  H10  1  0.95675600  0.12229600  0.03090300  1
  H  H11  1  0.88999400  0.22302900  0.93356600  1
  Nb  Nb12  1  0.96715000  0.27779100  0.19040400  1
  H  H13  1  0.22702300  0.16928600  0.99488000  1
  H  H14  1  0.89494200  0.33779100  0.46890800  1
  H  H15  1  0.44693400  0.47758700  0.43852400  1
  H  H16  1  0.86378400  0.95334300  0.48463600  1
  H  H17  1  0.44745600  0.83406600  0.43904100  1
  H  H18  1  0.58726200  0.31408100  0.74713700  1
  Sr  Sr19  1  0.19182000  0.68950400  0.07877000  1
  Sr  Sr20  1  0.17906000  0.01385900  0.71341600  1
