# generated using pymatgen
data_Sr2NbH13
_symmetry_space_group_name_H-M   'P 1'
_cell_length_a   4.28632900
_cell_length_b   5.45655186
_cell_length_c   6.50400856
_cell_angle_alpha   90.87533682
_cell_angle_beta   90.29995812
_cell_angle_gamma   98.70098249
_symmetry_Int_Tables_number   1
_chemical_formula_structural   Sr2NbH13
_chemical_formula_sum   'Sr2 Nb1 H13'
_cell_volume   150.34687261
_cell_formula_units_Z   1
loop_
 _symmetry_equiv_pos_site_id
 _symmetry_equiv_pos_as_xyz
  1  'x, y, z'
loop_
 _atom_site_type_symbol
 _atom_site_label
 _atom_site_symmetry_multiplicity
 _atom_site_fract_x
 _atom_site_fract_y
 _atom_site_fract_z
 _atom_site_occupancy
  H  H0  1  0.39685300  0.98452300  0.02734300  1
  H  H1  1  0.16070500  0.93097000  0.78738700  1
  H  H2  1  0.46051100  0.72758200  0.28670400  1
  Sr  Sr3  1  0.32939800  0.76971600  0.47257500  1
  H  H4  1  0.28937100  0.23394700  0.35963500  1
  H  H5  1  0.50741700  0.22442600  0.35636200  1
  H  H6  1  0.53540100  0.30670800  0.14825100  1
  H  H7  1  0.67034000  0.41648100  0.26011600  1
  Nb  Nb8  1  0.70786600  0.06205400  0.30854800  1
  H  H9  1  0.78935700  0.02185700  0.55374100  1
  H  H10  1  0.87516200  0.81004700  0.25512100  1
  H  H11  1  0.95494200  0.18571300  0.08761600  1
  H  H12  1  0.79604700  0.49816000  0.54898500  1
  H  H13  1  0.60980900  0.71000700  0.89234000  1
  H  H14  1  0.13817000  0.53565200  0.83251500  1
  Sr  Sr15  1  0.65002700  0.24371700  0.80979200  1
