# generated using pymatgen
data_Sr2NbH16
_symmetry_space_group_name_H-M   'P 1'
_cell_length_a   4.97890700
_cell_length_b   5.31881726
_cell_length_c   6.64481235
_cell_angle_alpha   73.40815066
_cell_angle_beta   86.72996251
_cell_angle_gamma   86.80425504
_symmetry_Int_Tables_number   1
_chemical_formula_structural   Sr2NbH16
_chemical_formula_sum   'Sr2 Nb1 H16'
_cell_volume   168.22270121
_cell_formula_units_Z   1
loop_
 _symmetry_equiv_pos_site_id
 _symmetry_equiv_pos_as_xyz
  1  'x, y, z'
loop_
 _atom_site_type_symbol
 _atom_site_label
 _atom_site_symmetry_multiplicity
 _atom_site_fract_x
 _atom_site_fract_y
 _atom_site_fract_z
 _atom_site_occupancy
  H  H0  1  0.11762100  0.83187900  0.45144100  1
  H  H1  1  0.10865100  0.73489700  0.38223700  1
  H  H2  1  0.93702700  0.94777500  0.72031200  1
  H  H3  1  0.02204300  0.81445200  0.80422800  1
  H  H4  1  0.36944800  0.01131700  0.78033000  1
  H  H5  1  0.22101800  0.14402000  0.84240000  1
  Sr  Sr6  1  0.12857600  0.19935600  0.06186100  1
  H  H7  1  0.62719100  0.99907500  0.36596100  1
  H  H8  1  0.62316500  0.09428600  0.24777500  1
  H  H9  1  0.63571800  0.84569100  0.59799500  1
  H  H10  1  0.61935300  0.41364600  0.08210600  1
  Nb  Nb11  1  0.63757000  0.74887900  0.89091000  1
  H  H12  1  0.68798200  0.07575300  0.93495000  1
  H  H13  1  0.84961400  0.50601000  0.77960800  1
  H  H14  1  0.89649500  0.69831700  0.10288800  1
  H  H15  1  0.39327600  0.75047700  0.12526000  1
  H  H16  1  0.36158500  0.56695100  0.80468300  1
  H  H17  1  0.09253500  0.28303700  0.42108300  1
  Sr  Sr18  1  0.58141300  0.41569300  0.48793600  1
