# generated using pymatgen
data_SrNb2H17
_symmetry_space_group_name_H-M   'P 1'
_cell_length_a   4.54570500
_cell_length_b   5.51085130
_cell_length_c   5.70163412
_cell_angle_alpha   85.30904671
_cell_angle_beta   85.43295483
_cell_angle_gamma   88.59521704
_symmetry_Int_Tables_number   1
_chemical_formula_structural   SrNb2H17
_chemical_formula_sum   'Sr1 Nb2 H17'
_cell_volume   141.87622428
_cell_formula_units_Z   1
loop_
 _symmetry_equiv_pos_site_id
 _symmetry_equiv_pos_as_xyz
  1  'x, y, z'
loop_
 _atom_site_type_symbol
 _atom_site_label
 _atom_site_symmetry_multiplicity
 _atom_site_fract_x
 _atom_site_fract_y
 _atom_site_fract_z
 _atom_site_occupancy
  H  H0  1  0.83955000  0.62438200  0.33402100  1
  H  H1  1  0.70547500  0.54505900  0.29483200  1
  H  H2  1  0.16692800  0.50182700  0.81289500  1
  H  H3  1  0.33891700  0.42730000  0.70530700  1
  H  H4  1  0.48965900  0.63670300  0.01706200  1
  H  H5  1  0.48192900  0.74982800  0.13358900  1
  Nb  Nb6  1  0.08322100  0.81096300  0.54499400  1
  H  H7  1  0.23983800  0.80122400  0.75346900  1
  H  H8  1  0.28960400  0.41599100  0.33640600  1
  H  H9  1  0.24964700  0.48098400  0.24734700  1
  H  H10  1  0.82050600  0.76061200  0.75348200  1
  H  H11  1  0.71937900  0.65773200  0.77745400  1
  H  H12  1  0.55185000  0.88295200  0.46991100  1
  H  H13  1  0.63395600  0.94391900  0.61631800  1
  Nb  Nb14  1  0.36528400  0.11112100  0.66849000  1
  H  H15  1  0.54702200  0.24800000  0.45442600  1
  H  H16  1  0.41001000  0.05055800  0.97000100  1
  H  H17  1  0.89943300  0.40576200  0.57123800  1
  H  H18  1  0.67625000  0.29600700  0.82967500  1
  Sr  Sr19  1  0.84464800  0.12342800  0.14642700  1
