# generated using pymatgen
data_Sr(NbH4)2
_symmetry_space_group_name_H-M   'P 1'
_cell_length_a   4.41816800
_cell_length_b   6.77015465
_cell_length_c   6.93981320
_cell_angle_alpha   77.59322196
_cell_angle_beta   88.38670210
_cell_angle_gamma   88.63696546
_symmetry_Int_Tables_number   1
_chemical_formula_structural   Sr(NbH4)2
_chemical_formula_sum   'Sr1 Nb2 H8'
_cell_volume   202.61998181
_cell_formula_units_Z   1
loop_
 _symmetry_equiv_pos_site_id
 _symmetry_equiv_pos_as_xyz
  1  'x, y, z'
loop_
 _atom_site_type_symbol
 _atom_site_label
 _atom_site_symmetry_multiplicity
 _atom_site_fract_x
 _atom_site_fract_y
 _atom_site_fract_z
 _atom_site_occupancy
  H  H0  1  0.72845200  0.71413700  0.17514500  1
  Nb  Nb1  1  0.63970400  0.94519700  0.22047700  1
  H  H2  1  0.07852900  0.29237800  0.95574400  1
  H  H3  1  0.17684000  0.38786700  0.02928600  1
  Nb  Nb4  1  0.88760200  0.19533600  0.07022600  1
  H  H5  1  0.17694800  0.91279700  0.32411000  1
  H  H6  1  0.10557600  0.00544900  0.35261600  1
  H  H7  1  0.30479400  0.21007000  0.29387100  1
  H  H8  1  0.81811100  0.61985400  0.80993600  1
  Sr  Sr9  1  0.14033600  0.68363700  0.69860800  1
  H  H10  1  0.72937700  0.97093700  0.64557900  1
