# generated using pymatgen
data_SrNbH7
_symmetry_space_group_name_H-M   'P 1'
_cell_length_a   3.72023600
_cell_length_b   6.40882929
_cell_length_c   7.25818480
_cell_angle_alpha   104.86524566
_cell_angle_beta   100.46990205
_cell_angle_gamma   90.58257586
_symmetry_Int_Tables_number   1
_chemical_formula_structural   SrNbH7
_chemical_formula_sum   'Sr2 Nb2 H14'
_cell_volume   164.18185939
_cell_formula_units_Z   2
loop_
 _symmetry_equiv_pos_site_id
 _symmetry_equiv_pos_as_xyz
  1  'x, y, z'
loop_
 _atom_site_type_symbol
 _atom_site_label
 _atom_site_symmetry_multiplicity
 _atom_site_fract_x
 _atom_site_fract_y
 _atom_site_fract_z
 _atom_site_occupancy
  Sr  Sr0  1  0.71260900  0.27876800  0.67383500  1
  H  H1  1  0.96178300  0.35259600  0.50512500  1
  H  H2  1  0.45741300  0.27365200  0.43319700  1
  H  H3  1  0.66691700  0.01337000  0.49357600  1
  H  H4  1  0.62162600  0.55546100  0.64413500  1
  H  H5  1  0.13099200  0.47257600  0.78268700  1
  H  H6  1  0.17975700  0.15345800  0.67627500  1
  H  H7  1  0.73050600  0.04448200  0.80213400  1
  H  H8  1  0.57182000  0.75781200  0.93863500  1
  H  H9  1  0.10131200  0.79801800  0.95063900  1
  Sr  Sr10  1  0.34085100  0.60071700  0.06282300  1
  H  H11  1  0.38167900  0.87414300  0.22632500  1
  H  H12  1  0.44002000  0.60133800  0.32248300  1
  H  H13  1  0.30436500  0.31158500  0.08654500  1
  H  H14  1  0.70742800  0.41391600  0.95428200  1
  H  H15  1  0.86213700  0.66421600  0.18697400  1
  Nb  Nb16  1  0.11761100  0.75875200  0.58732500  1
  Nb  Nb17  1  0.84514500  0.11496900  0.17168700  1
