# generated using pymatgen
data_Sr6NbH16
_symmetry_space_group_name_H-M   'P 1'
_cell_length_a   7.30390400
_cell_length_b   7.34085679
_cell_length_c   7.39538491
_cell_angle_alpha   65.07416488
_cell_angle_beta   62.69122868
_cell_angle_gamma   72.35341102
_symmetry_Int_Tables_number   1
_chemical_formula_structural   Sr6NbH16
_chemical_formula_sum   'Sr6 Nb1 H16'
_cell_volume   316.52722526
_cell_formula_units_Z   1
loop_
 _symmetry_equiv_pos_site_id
 _symmetry_equiv_pos_as_xyz
  1  'x, y, z'
loop_
 _atom_site_type_symbol
 _atom_site_label
 _atom_site_symmetry_multiplicity
 _atom_site_fract_x
 _atom_site_fract_y
 _atom_site_fract_z
 _atom_site_occupancy
  H  H0  1  0.29411700  0.92275300  0.01050200  1
  H  H1  1  0.31425900  0.76041500  0.27260200  1
  H  H2  1  0.57194000  0.87640800  0.97906300  1
  H  H3  1  0.11247700  0.15727000  0.93740600  1
  H  H4  1  0.15406500  0.84890400  0.89859000  1
  H  H5  1  0.33285900  0.09933800  0.11108500  1
  H  H6  1  0.45304500  0.71483700  0.89282400  1
  H  H7  1  0.03309800  0.88739500  0.24308900  1
  H  H8  1  0.41577600  0.08559000  0.71570400  1
  Sr  Sr9  1  0.56777800  0.48906300  0.21748100  1
  Sr  Sr10  1  0.76901700  0.95132200  0.59107900  1
  H  H11  1  0.64585600  0.87796200  0.40160700  1
  Sr  Sr12  1  0.81082200  0.00122300  0.03355300  1
  Sr  Sr13  1  0.28715500  0.93663500  0.50479800  1
  Nb  Nb14  1  0.83308900  0.27114900  0.33441200  1
  H  H15  1  0.94729600  0.11981200  0.65315700  1
  Sr  Sr16  1  0.22521800  0.44729500  0.95269500  1
  Sr  Sr17  1  0.87495600  0.48108100  0.50963500  1
  H  H18  1  0.86800200  0.62821300  0.14971400  1
  H  H19  1  0.02171300  0.67229300  0.69995600  1
  H  H20  1  0.65902200  0.35897400  0.92117500  1
  H  H21  1  0.48214900  0.54732700  0.57079400  1
  H  H22  1  0.25095600  0.33954900  0.31843200  1
