# generated using pymatgen
data_Sr2NbH11
_symmetry_space_group_name_H-M   'P 1'
_cell_length_a   3.77561300
_cell_length_b   5.40417681
_cell_length_c   7.39447484
_cell_angle_alpha   84.05538806
_cell_angle_beta   76.82162901
_cell_angle_gamma   89.20607657
_symmetry_Int_Tables_number   1
_chemical_formula_structural   Sr2NbH11
_chemical_formula_sum   'Sr2 Nb1 H11'
_cell_volume   146.10671163
_cell_formula_units_Z   1
loop_
 _symmetry_equiv_pos_site_id
 _symmetry_equiv_pos_as_xyz
  1  'x, y, z'
loop_
 _atom_site_type_symbol
 _atom_site_label
 _atom_site_symmetry_multiplicity
 _atom_site_fract_x
 _atom_site_fract_y
 _atom_site_fract_z
 _atom_site_occupancy
  H  H0  1  0.78943900  0.73549500  0.07824100  1
  H  H1  1  0.97101700  0.52931700  0.91782100  1
  H  H2  1  0.79912000  0.51302100  0.71769500  1
  H  H3  1  0.33339200  0.27600900  0.85112200  1
  H  H4  1  0.26649400  0.13194000  0.43418900  1
  H  H5  1  0.72216800  0.15351400  0.45400100  1
  Nb  Nb6  1  0.58996000  0.90373000  0.33082400  1
  H  H7  1  0.60906100  0.57885800  0.39120600  1
  H  H8  1  0.10882500  0.79134000  0.41494200  1
  H  H9  1  0.76416200  0.15609300  0.13820500  1
  H  H10  1  0.32846100  0.96523600  0.14260800  1
  H  H11  1  0.45543300  0.83831200  0.61789200  1
  Sr  Sr12  1  0.20234100  0.42466800  0.19116700  1
  Sr  Sr13  1  0.87496400  0.03504700  0.77969600  1
