# generated using pymatgen
data_SrNbH7
_symmetry_space_group_name_H-M   'P 1'
_cell_length_a   4.96321700
_cell_length_b   5.28202489
_cell_length_c   6.69507024
_cell_angle_alpha   110.68980669
_cell_angle_beta   90.12026434
_cell_angle_gamma   90.68263758
_symmetry_Int_Tables_number   1
_chemical_formula_structural   SrNbH7
_chemical_formula_sum   'Sr2 Nb2 H14'
_cell_volume   164.18184824
_cell_formula_units_Z   2
loop_
 _symmetry_equiv_pos_site_id
 _symmetry_equiv_pos_as_xyz
  1  'x, y, z'
loop_
 _atom_site_type_symbol
 _atom_site_label
 _atom_site_symmetry_multiplicity
 _atom_site_fract_x
 _atom_site_fract_y
 _atom_site_fract_z
 _atom_site_occupancy
  H  H0  1  0.47917100  0.27735500  0.14444100  1
  H  H1  1  0.62082300  0.45590000  0.20644100  1
  Nb  Nb2  1  0.22691400  0.45546500  0.35020600  1
  H  H3  1  0.04010500  0.26371300  0.11055200  1
  H  H4  1  0.22822100  0.10082100  0.33226700  1
  H  H5  1  0.87620600  0.35552700  0.38468900  1
  H  H6  1  0.26432700  0.62049000  0.14738000  1
  H  H7  1  0.50496300  0.73969100  0.45440900  1
  Nb  Nb8  1  0.78309600  0.66498700  0.63278400  1
  H  H9  1  0.96489900  0.87678800  0.86879800  1
  H  H10  1  0.75192500  0.02104600  0.66683100  1
  H  H11  1  0.51904700  0.81520700  0.83486400  1
  H  H12  1  0.76533300  0.48618000  0.82845200  1
  H  H13  1  0.13060600  0.53946700  0.64991600  1
  H  H14  1  0.02464500  0.78855700  0.46285800  1
  H  H15  1  0.50749300  0.37761900  0.52189700  1
  Sr  Sr16  1  0.27700900  0.19787100  0.78497900  1
  Sr  Sr17  1  0.73240700  0.89492800  0.18747100  1
