# generated using pymatgen
data_SrNbH6
_symmetry_space_group_name_H-M   'P 1'
_cell_length_a   4.25232500
_cell_length_b   5.39237249
_cell_length_c   7.29762049
_cell_angle_alpha   100.85937742
_cell_angle_beta   106.88411217
_cell_angle_gamma   92.02889662
_symmetry_Int_Tables_number   1
_chemical_formula_structural   SrNbH6
_chemical_formula_sum   'Sr1 Nb1 H6'
_cell_volume   156.53003217
_cell_formula_units_Z   1
loop_
 _symmetry_equiv_pos_site_id
 _symmetry_equiv_pos_as_xyz
  1  'x, y, z'
loop_
 _atom_site_type_symbol
 _atom_site_label
 _atom_site_symmetry_multiplicity
 _atom_site_fract_x
 _atom_site_fract_y
 _atom_site_fract_z
 _atom_site_occupancy
  H  H0  1  0.24006300  0.03692000  0.39505600  1
  H  H1  1  0.34587000  0.92824700  0.56765300  1
  Sr  Sr2  1  0.23173000  0.89140500  0.78308200  1
  H  H3  1  0.93662300  0.33442400  0.89050200  1
  H  H4  1  0.97893700  0.50330200  0.92324900  1
  H  H5  1  0.69626200  0.28461800  0.68513000  1
  H  H6  1  0.18047500  0.84709600  0.10046600  1
  Nb  Nb7  1  0.66137500  0.82731700  0.20328400  1
