# generated using pymatgen
data_Sr(NbH7)2
_symmetry_space_group_name_H-M   'P 1'
_cell_length_a   3.96734900
_cell_length_b   4.86500451
_cell_length_c   6.46862875
_cell_angle_alpha   85.64544500
_cell_angle_beta   86.23036997
_cell_angle_gamma   86.30529862
_symmetry_Int_Tables_number   1
_chemical_formula_structural   Sr(NbH7)2
_chemical_formula_sum   'Sr1 Nb2 H14'
_cell_volume   124.00041783
_cell_formula_units_Z   1
loop_
 _symmetry_equiv_pos_site_id
 _symmetry_equiv_pos_as_xyz
  1  'x, y, z'
loop_
 _atom_site_type_symbol
 _atom_site_label
 _atom_site_symmetry_multiplicity
 _atom_site_fract_x
 _atom_site_fract_y
 _atom_site_fract_z
 _atom_site_occupancy
  H  H0  1  0.17885800  0.47722500  0.04638900  1
  H  H1  1  0.21237400  0.49061100  0.89526500  1
  Nb  Nb2  1  0.24051200  0.68690400  0.27905200  1
  H  H3  1  0.25843800  0.86395800  0.09810700  1
  H  H4  1  0.28041700  0.35643200  0.31094500  1
  H  H5  1  0.24868700  0.72539900  0.54254000  1
  H  H6  1  0.01810000  0.75140500  0.49777200  1
  Nb  Nb7  1  0.07424600  0.74229800  0.69978400  1
  H  H8  1  0.57354200  0.66150300  0.48954000  1
  H  H9  1  0.22779800  0.91001200  0.84647300  1
  Sr  Sr10  1  0.75816800  0.28432200  0.61106600  1
  H  H11  1  0.09896000  0.41631400  0.66568800  1
  H  H12  1  0.41379300  0.98896500  0.41023000  1
  H  H13  1  0.77466900  0.89662900  0.86584400  1
  H  H14  1  0.89123200  0.93956200  0.27522700  1
  H  H15  1  0.74912800  0.48766100  0.89357800  1
  H  H16  1  0.74620400  0.57173000  0.22054700  1
