# generated using pymatgen
data_Sr2NbH11
_symmetry_space_group_name_H-M   'P 1'
_cell_length_a   4.18607000
_cell_length_b   5.51209610
_cell_length_c   7.37642905
_cell_angle_alpha   99.97620023
_cell_angle_beta   105.01875885
_cell_angle_gamma   111.40402029
_symmetry_Int_Tables_number   1
_chemical_formula_structural   Sr2NbH11
_chemical_formula_sum   'Sr2 Nb1 H11'
_cell_volume   146.10673121
_cell_formula_units_Z   1
loop_
 _symmetry_equiv_pos_site_id
 _symmetry_equiv_pos_as_xyz
  1  'x, y, z'
loop_
 _atom_site_type_symbol
 _atom_site_label
 _atom_site_symmetry_multiplicity
 _atom_site_fract_x
 _atom_site_fract_y
 _atom_site_fract_z
 _atom_site_occupancy
  Nb  Nb0  1  0.04571700  0.00046900  0.65626400  1
  H  H1  1  0.23665200  0.90458800  0.68245500  1
  H  H2  1  0.18092200  0.64522100  0.08721900  1
  H  H3  1  0.97945600  0.62769300  0.19891100  1
  Sr  Sr4  1  0.80368300  0.67971600  0.00823800  1
  H  H5  1  0.65230600  0.53097700  0.28265400  1
  H  H6  1  0.72160800  0.94654400  0.12917500  1
  H  H7  1  0.67909600  0.11667500  0.16925200  1
  H  H8  1  0.48972700  0.05188800  0.98693100  1
  Sr  Sr9  1  0.69381000  0.35190400  0.48981300  1
  H  H10  1  0.74917000  0.16281000  0.37376800  1
  H  H11  1  0.09538500  0.11795600  0.10601100  1
  H  H12  1  0.34626700  0.01751000  0.38449300  1
  H  H13  1  0.22632700  0.46973600  0.56483500  1
