# generated using pymatgen
data_Sr2Nb2H17
_symmetry_space_group_name_H-M   'P 1'
_cell_length_a   4.60736600
_cell_length_b   5.85355052
_cell_length_c   6.84515830
_cell_angle_alpha   84.81531020
_cell_angle_beta   89.09208973
_cell_angle_gamma   81.98439002
_symmetry_Int_Tables_number   1
_chemical_formula_structural   Sr2Nb2H17
_chemical_formula_sum   'Sr2 Nb2 H17'
_cell_volume   182.05760870
_cell_formula_units_Z   1
loop_
 _symmetry_equiv_pos_site_id
 _symmetry_equiv_pos_as_xyz
  1  'x, y, z'
loop_
 _atom_site_type_symbol
 _atom_site_label
 _atom_site_symmetry_multiplicity
 _atom_site_fract_x
 _atom_site_fract_y
 _atom_site_fract_z
 _atom_site_occupancy
  H  H0  1  0.32004800  0.51461300  0.56881200  1
  H  H1  1  0.26071900  0.82231000  0.49207100  1
  H  H2  1  0.17985500  0.99822100  0.16163500  1
  H  H3  1  0.37057700  0.95475300  0.18919800  1
  H  H4  1  0.89977900  0.87905400  0.01514000  1
  H  H5  1  0.77770100  0.86745800  0.91240000  1
  H  H6  1  0.95739600  0.71456400  0.76809700  1
  Nb  Nb7  1  0.78636100  0.58724200  0.01261600  1
  H  H8  1  0.97214300  0.38584900  0.87995400  1
  H  H9  1  0.05150600  0.12679800  0.69285100  1
  H  H10  1  0.08828500  0.99571600  0.71459700  1
  H  H11  1  0.80343000  0.36394400  0.57508100  1
  Nb  Nb12  1  0.72013300  0.68761900  0.53741300  1
  H  H13  1  0.64635300  0.96620700  0.60612900  1
  H  H14  1  0.74856100  0.59075000  0.29283300  1
  H  H15  1  0.75346600  0.93769700  0.34919600  1
  H  H16  1  0.80957200  0.28898800  0.15321200  1
  H  H17  1  0.51969800  0.59205100  0.79954800  1
  Sr  Sr18  1  0.50442900  0.16266800  0.86950800  1
  H  H19  1  0.32885000  0.46766200  0.06952200  1
  Sr  Sr20  1  0.28101400  0.23637500  0.38018000  1
