# generated using pymatgen
data_SrNb2H21
_symmetry_space_group_name_H-M   'P 1'
_cell_length_a   4.99833100
_cell_length_b   5.05205093
_cell_length_c   6.57014865
_cell_angle_alpha   87.71419378
_cell_angle_beta   88.39046739
_cell_angle_gamma   89.85613808
_symmetry_Int_Tables_number   1
_chemical_formula_structural   SrNb2H21
_chemical_formula_sum   'Sr1 Nb2 H21'
_cell_volume   165.71065043
_cell_formula_units_Z   1
loop_
 _symmetry_equiv_pos_site_id
 _symmetry_equiv_pos_as_xyz
  1  'x, y, z'
loop_
 _atom_site_type_symbol
 _atom_site_label
 _atom_site_symmetry_multiplicity
 _atom_site_fract_x
 _atom_site_fract_y
 _atom_site_fract_z
 _atom_site_occupancy
  H  H0  1  0.05187000  0.64574100  0.42020600  1
  H  H1  1  0.03231300  0.51864100  0.40027300  1
  Nb  Nb2  1  0.01443300  0.84650000  0.44733900  1
  H  H3  1  0.33562800  0.22487400  0.58348500  1
  H  H4  1  0.27547800  0.26951800  0.47745800  1
  H  H5  1  0.30332900  0.98928200  0.57978300  1
  H  H6  1  0.06203700  0.27163300  0.00077400  1
  H  H7  1  0.10607200  0.15224000  0.97481900  1
  Nb  Nb8  1  0.15042600  0.94328000  0.80338700  1
  H  H9  1  0.55187000  0.64574100  0.42020600  1
  H  H10  1  0.53231300  0.51864100  0.40027300  1
  H  H11  1  0.83562800  0.22487400  0.58348500  1
  H  H12  1  0.77547800  0.26951800  0.47745800  1
  H  H13  1  0.28019300  0.47536000  0.78719300  1
  H  H14  1  0.26887200  0.58668400  0.70402800  1
  H  H15  1  0.34313600  0.68914900  0.00383000  1
  H  H16  1  0.40072700  0.71571900  0.10503500  1
  H  H17  1  0.56203700  0.27163300  0.00077400  1
  H  H18  1  0.60607200  0.15224000  0.97481900  1
  Sr  Sr19  1  0.60528500  0.94353400  0.11276600  1
  H  H20  1  0.84313600  0.68914900  0.00383000  1
  H  H21  1  0.90072700  0.71571900  0.10503500  1
  H  H22  1  0.78019300  0.47536000  0.78719300  1
  H  H23  1  0.76887200  0.58668400  0.70402800  1
