# generated using pymatgen
data_Sr2NbH13
_symmetry_space_group_name_H-M   'P 1'
_cell_length_a   3.87534000
_cell_length_b   6.06108644
_cell_length_c   6.85951719
_cell_angle_alpha   101.24292064
_cell_angle_beta   89.64366136
_cell_angle_gamma   89.74412387
_symmetry_Int_Tables_number   1
_chemical_formula_structural   Sr2NbH13
_chemical_formula_sum   'Sr2 Nb1 H13'
_cell_volume   158.02389747
_cell_formula_units_Z   1
loop_
 _symmetry_equiv_pos_site_id
 _symmetry_equiv_pos_as_xyz
  1  'x, y, z'
loop_
 _atom_site_type_symbol
 _atom_site_label
 _atom_site_symmetry_multiplicity
 _atom_site_fract_x
 _atom_site_fract_y
 _atom_site_fract_z
 _atom_site_occupancy
  Nb  Nb0  1  0.57708900  0.92479600  0.80239700  1
  H  H1  1  0.50682800  0.83831200  0.91880700  1
  H  H2  1  0.29087500  0.70286900  0.78584900  1
  H  H3  1  0.66769000  0.64157500  0.68810000  1
  H  H4  1  0.67498800  0.86883500  0.55345100  1
  H  H5  1  0.85279000  0.17544100  0.52704600  1
  H  H6  1  0.04579900  0.15755400  0.53284000  1
  H  H7  1  0.55508700  0.20296200  0.73256700  1
  H  H8  1  0.20096500  0.85370100  0.56708300  1
  H  H9  1  0.41782100  0.26744900  0.40017500  1
  Sr  Sr10  1  0.31975200  0.87256300  0.19821000  1
  H  H11  1  0.29375000  0.42063200  0.07761800  1
  H  H12  1  0.11399200  0.46104700  0.08204600  1
  H  H13  1  0.81150600  0.66868100  0.20534400  1
  Sr  Sr14  1  0.93950200  0.47907300  0.42113600  1
  H  H15  1  0.73303300  0.13645600  0.08888900  1
