# generated using pymatgen
data_SrNbH18
_symmetry_space_group_name_H-M   'P 1'
_cell_length_a   5.00390500
_cell_length_b   5.05116804
_cell_length_c   5.88505391
_cell_angle_alpha   94.87661331
_cell_angle_beta   90.34896287
_cell_angle_gamma   94.98446568
_symmetry_Int_Tables_number   1
_chemical_formula_structural   SrNbH18
_chemical_formula_sum   'Sr1 Nb1 H18'
_cell_volume   147.63551181
_cell_formula_units_Z   1
loop_
 _symmetry_equiv_pos_site_id
 _symmetry_equiv_pos_as_xyz
  1  'x, y, z'
loop_
 _atom_site_type_symbol
 _atom_site_label
 _atom_site_symmetry_multiplicity
 _atom_site_fract_x
 _atom_site_fract_y
 _atom_site_fract_z
 _atom_site_occupancy
  H  H0  1  0.36748000  0.83115200  0.28343300  1
  H  H1  1  0.34012100  0.11445200  0.42113600  1
  H  H2  1  0.10074500  0.84681700  0.06403500  1
  H  H3  1  0.96358800  0.81783400  0.01579400  1
  H  H4  1  0.47168500  0.74979600  0.01550600  1
  H  H5  1  0.57644400  0.90564500  0.05935900  1
  H  H6  1  0.70643000  0.80049700  0.48498400  1
  H  H7  1  0.68451900  0.82394300  0.66579400  1
  H  H8  1  0.75559500  0.79762400  0.23390500  1
  H  H9  1  0.28370200  0.37747200  0.07834900  1
  H  H10  1  0.41189300  0.31845900  0.06592400  1
  Nb  Nb11  1  0.30950100  0.20004300  0.88934700  1
  H  H12  1  0.17542900  0.35133300  0.28859500  1
  H  H13  1  0.81803900  0.30305400  0.01025700  1
  H  H14  1  0.86791100  0.30594200  0.09093000  1
  H  H15  1  0.61629200  0.14313900  0.86859300  1
  H  H16  1  0.66502500  0.41034000  0.30685400  1
  H  H17  1  0.42366900  0.43393900  0.53947300  1
  H  H18  1  0.08391300  0.34588000  0.63018800  1
  Sr  Sr19  1  0.15174200  0.73327400  0.60592200  1
