# generated using pymatgen
data_SrNbH16
_symmetry_space_group_name_H-M   'P 1'
_cell_length_a   4.47448600
_cell_length_b   4.73119001
_cell_length_c   6.51834331
_cell_angle_alpha   88.96711091
_cell_angle_beta   82.45757990
_cell_angle_gamma   82.80037038
_symmetry_Int_Tables_number   1
_chemical_formula_structural   SrNbH16
_chemical_formula_sum   'Sr1 Nb1 H16'
_cell_volume   135.71834986
_cell_formula_units_Z   1
loop_
 _symmetry_equiv_pos_site_id
 _symmetry_equiv_pos_as_xyz
  1  'x, y, z'
loop_
 _atom_site_type_symbol
 _atom_site_label
 _atom_site_symmetry_multiplicity
 _atom_site_fract_x
 _atom_site_fract_y
 _atom_site_fract_z
 _atom_site_occupancy
  H  H0  1  0.28521000  0.00098900  0.77669400  1
  H  H1  1  0.19725800  0.83321800  0.56862000  1
  H  H2  1  0.10304200  0.77833200  0.95954600  1
  H  H3  1  0.89834300  0.37918200  0.94247300  1
  H  H4  1  0.95899500  0.34283900  0.85325900  1
  H  H5  1  0.72800600  0.22724400  0.21052500  1
  H  H6  1  0.87757100  0.89690700  0.24093500  1
  H  H7  1  0.60304200  0.77833200  0.95954600  1
  H  H8  1  0.53596900  0.94433500  0.02760800  1
  H  H9  1  0.78521000  0.00098900  0.77669400  1
  H  H10  1  0.39834300  0.37918200  0.94247300  1
  H  H11  1  0.45899500  0.34283900  0.85325900  1
  Nb  Nb12  1  0.39571200  0.00697100  0.31461500  1
  H  H13  1  0.27468400  0.25352400  0.18326900  1
  H  H14  1  0.37251700  0.68796800  0.25202800  1
  H  H15  1  0.21745400  0.25874000  0.50090300  1
  H  H16  1  0.64714400  0.07521500  0.50871900  1
  Sr  Sr17  1  0.78420100  0.52535200  0.44601600  1
