# generated using pymatgen
data_SrNb2H7
_symmetry_space_group_name_H-M   'P 1'
_cell_length_a   4.53221700
_cell_length_b   6.07490194
_cell_length_c   6.59767840
_cell_angle_alpha   81.67616774
_cell_angle_beta   81.65743147
_cell_angle_gamma   76.45466670
_symmetry_Int_Tables_number   1
_chemical_formula_structural   SrNb2H7
_chemical_formula_sum   'Sr2 Nb4 H14'
_cell_volume   173.56820860
_cell_formula_units_Z   2
loop_
 _symmetry_equiv_pos_site_id
 _symmetry_equiv_pos_as_xyz
  1  'x, y, z'
loop_
 _atom_site_type_symbol
 _atom_site_label
 _atom_site_symmetry_multiplicity
 _atom_site_fract_x
 _atom_site_fract_y
 _atom_site_fract_z
 _atom_site_occupancy
  Nb  Nb0  1  0.98333600  0.99514700  0.58302400  1
  H  H1  1  0.91746400  0.21263900  0.44998300  1
  Sr  Sr2  1  0.67224800  0.33891200  0.95561700  1
  H  H3  1  0.55255900  0.53094900  0.72396200  1
  Nb  Nb4  1  0.98333600  0.49514700  0.58302400  1
  H  H5  1  0.91746400  0.71263900  0.44998300  1
  H  H6  1  0.22018000  0.11128600  0.04772900  1
  H  H7  1  0.07201900  0.10856000  0.17816500  1
  H  H8  1  0.78924300  0.14684500  0.19072500  1
  H  H9  1  0.28816400  0.89712900  0.18971400  1
  Nb  Nb10  1  0.34869100  0.67688900  0.31043100  1
  H  H11  1  0.41872700  0.46101000  0.45136300  1
  H  H12  1  0.22018000  0.61128600  0.04772900  1
  H  H13  1  0.04202600  0.75095200  0.18069600  1
  H  H14  1  0.78924300  0.64684500  0.19072500  1
  Nb  Nb15  1  0.34869100  0.17688900  0.31043100  1
  H  H16  1  0.28816400  0.39712900  0.18971400  1
  H  H17  1  0.41872700  0.96101000  0.45136300  1
  Sr  Sr18  1  0.67224800  0.83891200  0.95561700  1
  H  H19  1  0.55255900  0.03094900  0.72396200  1
