# generated using pymatgen
data_Sr2NbH9
_symmetry_space_group_name_H-M   'P 1'
_cell_length_a   4.09835300
_cell_length_b   5.15984808
_cell_length_c   6.04057501
_cell_angle_alpha   79.70365632
_cell_angle_beta   87.21901846
_cell_angle_gamma   88.08988611
_symmetry_Int_Tables_number   1
_chemical_formula_structural   Sr2NbH9
_chemical_formula_sum   'Sr2 Nb1 H9'
_cell_volume   125.49470799
_cell_formula_units_Z   1
loop_
 _symmetry_equiv_pos_site_id
 _symmetry_equiv_pos_as_xyz
  1  'x, y, z'
loop_
 _atom_site_type_symbol
 _atom_site_label
 _atom_site_symmetry_multiplicity
 _atom_site_fract_x
 _atom_site_fract_y
 _atom_site_fract_z
 _atom_site_occupancy
  H  H0  1  0.30805700  0.57633100  0.43393900  1
  H  H1  1  0.21734200  0.91608700  0.34588000  1
  H  H2  1  0.91535900  0.11487100  0.78347300  1
  H  H3  1  0.68230500  0.08459100  0.64877600  1
  H  H4  1  0.36254500  0.29357000  0.80049700  1
  H  H5  1  0.18173500  0.31548100  0.82394300  1
  H  H6  1  0.87481400  0.41631400  0.94800400  1
  H  H7  1  0.98822800  0.49061100  0.17758200  1
  Nb  Nb8  1  0.85010000  0.74229800  0.98210100  1
  H  H9  1  0.42639300  0.65987900  0.11445200  1
  Sr  Sr10  1  0.24160700  0.84825800  0.73327400  1
  Sr  Sr11  1  0.54780700  0.21775200  0.28290500  1
