# generated using pymatgen
data_SrNbH19
_symmetry_space_group_name_H-M   'P 1'
_cell_length_a   4.92199300
_cell_length_b   5.14138239
_cell_length_c   6.25837757
_cell_angle_alpha   81.85018029
_cell_angle_beta   82.73045103
_cell_angle_gamma   80.11026308
_symmetry_Int_Tables_number   1
_chemical_formula_structural   SrNbH19
_chemical_formula_sum   'Sr1 Nb1 H19'
_cell_volume   153.59415489
_cell_formula_units_Z   1
loop_
 _symmetry_equiv_pos_site_id
 _symmetry_equiv_pos_as_xyz
  1  'x, y, z'
loop_
 _atom_site_type_symbol
 _atom_site_label
 _atom_site_symmetry_multiplicity
 _atom_site_fract_x
 _atom_site_fract_y
 _atom_site_fract_z
 _atom_site_occupancy
  H  H0  1  0.10714900  0.91278000  0.08082600  1
  H  H1  1  0.03319600  0.77054800  0.10374900  1
  H  H2  1  0.75094400  0.65424100  0.37434600  1
  H  H3  1  0.70677500  0.62952600  0.48545500  1
  H  H4  1  0.73470700  0.46635700  0.55819400  1
  H  H5  1  0.78836500  0.36098200  0.27283400  1
  H  H6  1  0.25094400  0.65424100  0.37434600  1
  H  H7  1  0.20677500  0.62952600  0.48545500  1
  H  H8  1  0.32557600  0.52100500  0.51972700  1
  H  H9  1  0.60714900  0.91278000  0.08082600  1
  H  H10  1  0.53319600  0.77054800  0.10374900  1
  H  H11  1  0.46595200  0.02338500  0.88173600  1
  Nb  Nb12  1  0.47263000  0.31490400  0.74976900  1
  H  H13  1  0.62426100  0.34452300  0.93792700  1
  H  H14  1  0.57707100  0.13433500  0.56637100  1
  H  H15  1  0.46218900  0.62615000  0.76241600  1
  H  H16  1  0.15504700  0.29071700  0.73201400  1
  H  H17  1  0.22245200  0.31302900  0.98876700  1
  H  H18  1  0.83096000  0.09187900  0.73787100  1
  H  H19  1  0.96218900  0.62615000  0.76241600  1
  Sr  Sr20  1  0.26363200  0.28125200  0.33229500  1
