# generated using pymatgen
data_SrNb3H16
_symmetry_space_group_name_H-M   'P 1'
_cell_length_a   3.29579300
_cell_length_b   5.98774786
_cell_length_c   7.81524397
_cell_angle_alpha   88.63126242
_cell_angle_beta   80.10275256
_cell_angle_gamma   80.31490011
_symmetry_Int_Tables_number   1
_chemical_formula_structural   SrNb3H16
_chemical_formula_sum   'Sr1 Nb3 H16'
_cell_volume   149.76619383
_cell_formula_units_Z   1
loop_
 _symmetry_equiv_pos_site_id
 _symmetry_equiv_pos_as_xyz
  1  'x, y, z'
loop_
 _atom_site_type_symbol
 _atom_site_label
 _atom_site_symmetry_multiplicity
 _atom_site_fract_x
 _atom_site_fract_y
 _atom_site_fract_z
 _atom_site_occupancy
  H  H0  1  0.96048800  0.50282000  0.07399800  1
  H  H1  1  0.76995200  0.56449400  0.04284100  1
  H  H2  1  0.63527000  0.89929500  0.56241600  1
  H  H3  1  0.86346200  0.86506400  0.68886700  1
  Nb  Nb4  1  0.20451500  0.72703900  0.54453800  1
  H  H5  1  0.91059500  0.91615500  0.89305200  1
  Nb  Nb6  1  0.40951400  0.00537000  0.80010100  1
  H  H7  1  0.38782300  0.82598500  0.98884000  1
  H  H8  1  0.35443500  0.71134800  0.77109400  1
  H  H9  1  0.93304400  0.53434000  0.68988900  1
  H  H10  1  0.33444700  0.71045700  0.30596600  1
  H  H11  1  0.26766400  0.17613900  0.00125900  1
  H  H12  1  0.11793300  0.99859100  0.42860400  1
  H  H13  1  0.91269200  0.20095900  0.78278400  1
  Nb  Nb14  1  0.95995000  0.28972900  0.53595700  1
  H  H15  1  0.08854000  0.27944200  0.29930600  1
  H  H16  1  0.53498800  0.26937500  0.41693100  1
  H  H17  1  0.43547400  0.30554400  0.67824200  1
  H  H18  1  0.80581200  0.58311000  0.44149900  1
  Sr  Sr19  1  0.74370200  0.99210800  0.19111200  1
