# generated using pymatgen
data_Sr2NbH12
_symmetry_space_group_name_H-M   'P 1'
_cell_length_a   3.62883400
_cell_length_b   5.88298413
_cell_length_c   7.34387972
_cell_angle_alpha   88.42158348
_cell_angle_beta   77.01366355
_cell_angle_gamma   84.50609598
_symmetry_Int_Tables_number   1
_chemical_formula_structural   Sr2NbH12
_chemical_formula_sum   'Sr2 Nb1 H12'
_cell_volume   152.06532508
_cell_formula_units_Z   1
loop_
 _symmetry_equiv_pos_site_id
 _symmetry_equiv_pos_as_xyz
  1  'x, y, z'
loop_
 _atom_site_type_symbol
 _atom_site_label
 _atom_site_symmetry_multiplicity
 _atom_site_fract_x
 _atom_site_fract_y
 _atom_site_fract_z
 _atom_site_occupancy
  H  H0  1  0.85051400  0.51302100  0.12257500  1
  H  H1  1  0.04334800  0.50380400  0.13313600  1
  H  H2  1  0.96048800  0.50282000  0.98541300  1
  H  H3  1  0.76995200  0.56449400  0.95425600  1
  H  H4  1  0.66045500  0.57885800  0.79608600  1
  H  H5  1  0.50682800  0.83831200  0.02277200  1
  H  H6  1  0.38782300  0.82598500  0.90025500  1
  Nb  Nb7  1  0.64135400  0.90373000  0.73570400  1
  H  H8  1  0.37985500  0.96523600  0.54748800  1
  H  H9  1  0.81555600  0.15609300  0.54308500  1
  H  H10  1  0.84083400  0.73549500  0.48312100  1
  H  H11  1  0.26766400  0.17613900  0.91267400  1
  H  H12  1  0.38478700  0.27600900  0.25600200  1
  Sr  Sr13  1  0.92635900  0.03504700  0.18457600  1
  Sr  Sr14  1  0.25373600  0.42466800  0.59604700  1
