# generated using pymatgen
data_SrNbH19
_symmetry_space_group_name_H-M   'P 1'
_cell_length_a   4.41238900
_cell_length_b   5.12997212
_cell_length_c   6.98132685
_cell_angle_alpha   78.28293744
_cell_angle_beta   83.10412134
_cell_angle_gamma   87.72620034
_symmetry_Int_Tables_number   1
_chemical_formula_structural   SrNbH19
_chemical_formula_sum   'Sr1 Nb1 H19'
_cell_volume   153.59413391
_cell_formula_units_Z   1
loop_
 _symmetry_equiv_pos_site_id
 _symmetry_equiv_pos_as_xyz
  1  'x, y, z'
loop_
 _atom_site_type_symbol
 _atom_site_label
 _atom_site_symmetry_multiplicity
 _atom_site_fract_x
 _atom_site_fract_y
 _atom_site_fract_z
 _atom_site_occupancy
  H  H0  1  0.67726100  0.90122900  0.17385800  1
  H  H1  1  0.65454600  0.92593700  0.06378600  1
  Sr  Sr2  1  0.66662600  0.23959300  0.95156700  1
  H  H3  1  0.17726100  0.90122900  0.17385800  1
  H  H4  1  0.15454600  0.92593700  0.06378600  1
  H  H5  1  0.14087200  0.04726000  0.19881800  1
  H  H6  1  0.03047900  0.31296000  0.14076700  1
  H  H7  1  0.23599500  0.06504900  0.83162400  1
  H  H8  1  0.41505600  0.99699100  0.85348300  1
  H  H9  1  0.44399100  0.87272400  0.77502700  1
  H  H10  1  0.94399100  0.87272400  0.77502700  1
  H  H11  1  0.91505600  0.99699100  0.85348300  1
  H  H12  1  0.79700900  0.04286100  0.70884700  1
  Nb  Nb13  1  0.32192700  0.12548800  0.57969900  1
  H  H14  1  0.54184600  0.36670300  0.61561200  1
  H  H15  1  0.15207000  0.88957800  0.48073000  1
  H  H16  1  0.91506500  0.17064400  0.43509600  1
  H  H17  1  0.03545400  0.38074700  0.58228300  1
  H  H18  1  0.65207000  0.88957800  0.48073000  1
  H  H19  1  0.46137200  0.31486700  0.31801600  1
  H  H20  1  0.20673800  0.49274100  0.80973900  1
