# generated using pymatgen
data_SrNbH6
_symmetry_space_group_name_H-M   'P 1'
_cell_length_a   4.93088100
_cell_length_b   5.65778765
_cell_length_c   6.74859429
_cell_angle_alpha   66.90071669
_cell_angle_beta   78.05113292
_cell_angle_gamma   64.81276746
_symmetry_Int_Tables_number   1
_chemical_formula_structural   SrNbH6
_chemical_formula_sum   'Sr1 Nb1 H6'
_cell_volume   156.52999187
_cell_formula_units_Z   1
loop_
 _symmetry_equiv_pos_site_id
 _symmetry_equiv_pos_as_xyz
  1  'x, y, z'
loop_
 _atom_site_type_symbol
 _atom_site_label
 _atom_site_symmetry_multiplicity
 _atom_site_fract_x
 _atom_site_fract_y
 _atom_site_fract_z
 _atom_site_occupancy
  H  H0  1  0.70875400  0.49096500  0.92472600  1
  H  H1  1  0.74767800  0.33324100  0.90162700  1
  H  H2  1  0.91634000  0.11446700  0.71525400  1
  H  H3  1  0.59031300  0.11341200  0.69404800  1
  Nb  Nb4  1  0.33432800  0.75435200  0.68679800  1
  H  H5  1  0.27911100  0.15998600  0.99079800  1
  H  H6  1  0.29434900  0.16235300  0.32620900  1
  Sr  Sr7  1  0.69830000  0.56135000  0.43597000  1
