# generated using pymatgen
data_SrNbH7
_symmetry_space_group_name_H-M   'P 1'
_cell_length_a   4.18606000
_cell_length_b   5.74798850
_cell_length_c   7.03898367
_cell_angle_alpha   96.01063913
_cell_angle_beta   94.02964718
_cell_angle_gamma   101.74075100
_symmetry_Int_Tables_number   1
_chemical_formula_structural   SrNbH7
_chemical_formula_sum   'Sr2 Nb2 H14'
_cell_volume   164.18184610
_cell_formula_units_Z   2
loop_
 _symmetry_equiv_pos_site_id
 _symmetry_equiv_pos_as_xyz
  1  'x, y, z'
loop_
 _atom_site_type_symbol
 _atom_site_label
 _atom_site_symmetry_multiplicity
 _atom_site_fract_x
 _atom_site_fract_y
 _atom_site_fract_z
 _atom_site_occupancy
  H  H0  1  0.30436500  0.45712600  0.91345500  1
  H  H1  1  0.91358500  0.34647600  0.87439500  1
  H  H2  1  0.96178300  0.41611500  0.49487500  1
  H  H3  1  0.98803500  0.20915300  0.41556500  1
  Nb  Nb4  1  0.77091700  0.21833800  0.61749400  1
  Nb  Nb5  1  0.71260900  0.48994300  0.32616500  1
  H  H6  1  0.56660700  0.34397600  0.38441500  1
  H  H7  1  0.45741300  0.49505800  0.56680300  1
  H  H8  1  0.40893400  0.27641900  0.62784600  1
  H  H9  1  0.66691700  0.75534100  0.50642400  1
  H  H10  1  0.73050600  0.72422900  0.19786600  1
  H  H11  1  0.17975700  0.61525300  0.32372500  1
  Sr  Sr12  1  0.84514500  0.65374200  0.82831300  1
  H  H13  1  0.10131200  0.97069300  0.04936100  1
  H  H14  1  0.97994500  0.02300500  0.03511600  1
  H  H15  1  0.38167900  0.89456700  0.77367500  1
  H  H16  1  0.05282200  0.05499000  0.76626300  1
  Sr  Sr17  1  0.60548000  0.20526400  0.09010900  1
