# generated using pymatgen
data_Sr2Nb2H19
_symmetry_space_group_name_H-M   'P 1'
_cell_length_a   3.84549500
_cell_length_b   6.55161239
_cell_length_c   8.19267794
_cell_angle_alpha   72.82466927
_cell_angle_beta   79.63831687
_cell_angle_gamma   87.56567962
_symmetry_Int_Tables_number   1
_chemical_formula_structural   Sr2Nb2H19
_chemical_formula_sum   'Sr2 Nb2 H19'
_cell_volume   193.97484424
_cell_formula_units_Z   1
loop_
 _symmetry_equiv_pos_site_id
 _symmetry_equiv_pos_as_xyz
  1  'x, y, z'
loop_
 _atom_site_type_symbol
 _atom_site_label
 _atom_site_symmetry_multiplicity
 _atom_site_fract_x
 _atom_site_fract_y
 _atom_site_fract_z
 _atom_site_occupancy
  Nb  Nb0  1  0.81406900  0.11122800  0.20756200  1
  H  H1  1  0.47262100  0.11578400  0.38735500  1
  H  H2  1  0.42515900  0.26541200  0.15290700  1
  H  H3  1  0.91973300  0.14464400  0.44081600  1
  H  H4  1  0.42142800  0.94585600  0.21349300  1
  H  H5  1  0.79855000  0.83362500  0.36959600  1
  H  H6  1  0.93557200  0.85827400  0.11337800  1
  H  H7  1  0.19172000  0.49951300  0.33359400  1
  H  H8  1  0.38532000  0.47936600  0.34195300  1
  Nb  Nb9  1  0.70672500  0.20789700  0.69835900  1
  H  H10  1  0.37969200  0.12411600  0.89342100  1
  H  H11  1  0.03330100  0.65642600  0.85303200  1
  H  H12  1  0.04350700  0.52148300  0.87255800  1
  Sr  Sr13  1  0.47086600  0.68205900  0.02311400  1
  H  H14  1  0.75707700  0.55747300  0.99533700  1
  H  H15  1  0.90879200  0.43613700  0.16119200  1
  H  H16  1  0.91874700  0.92925500  0.77063900  1
  H  H17  1  0.46831700  0.94809900  0.71305100  1
  H  H18  1  0.75610500  0.48067600  0.52127900  1
  H  H19  1  0.83708300  0.19836200  0.92787500  1
  H  H20  1  0.23207800  0.29067400  0.64447900  1
  H  H21  1  0.56719800  0.46691500  0.78323700  1
  Sr  Sr22  1  0.23561200  0.74268200  0.54209900  1
