# generated using pymatgen
data_Sr2NbH15
_symmetry_space_group_name_H-M   'P 1'
_cell_length_a   4.27111200
_cell_length_b   5.74477668
_cell_length_c   7.13447310
_cell_angle_alpha   76.71969766
_cell_angle_beta   86.88976844
_cell_angle_gamma   86.70801683
_symmetry_Int_Tables_number   1
_chemical_formula_structural   Sr2NbH15
_chemical_formula_sum   'Sr2 Nb1 H15'
_cell_volume   169.94112598
_cell_formula_units_Z   1
loop_
 _symmetry_equiv_pos_site_id
 _symmetry_equiv_pos_as_xyz
  1  'x, y, z'
loop_
 _atom_site_type_symbol
 _atom_site_label
 _atom_site_symmetry_multiplicity
 _atom_site_fract_x
 _atom_site_fract_y
 _atom_site_fract_z
 _atom_site_occupancy
  H  H0  1  0.17900300  0.01125800  0.03268300  1
  H  H1  1  0.36237100  0.96093000  0.06347100  1
  H  H2  1  0.07085800  0.11385400  0.58585900  1
  H  H3  1  0.10329200  0.98333700  0.62607900  1
  H  H4  1  0.13350300  0.82596200  0.82810100  1
  H  H5  1  0.97318600  0.70747100  0.65455800  1
  H  H6  1  0.91836200  0.38931400  0.48054800  1
  Nb  Nb7  1  0.74314000  0.69618100  0.42281900  1
  H  H8  1  0.75018600  0.94278000  0.22526800  1
  H  H9  1  0.66034400  0.98104900  0.48440700  1
  H  H10  1  0.42882500  0.48633900  0.44815300  1
  H  H11  1  0.26427900  0.80698700  0.38286200  1
  H  H12  1  0.78060300  0.59358100  0.18273100  1
  Sr  Sr13  1  0.56583100  0.32338100  0.78162100  1
  H  H14  1  0.53350200  0.60727500  0.67773000  1
  H  H15  1  0.61759200  0.99385800  0.75951700  1
  H  H16  1  0.79395600  0.29602700  0.04909300  1
  Sr  Sr17  1  0.27059900  0.23427200  0.25981400  1
