# generated using pymatgen
data_SrNb3H14
_symmetry_space_group_name_H-M   'P 1'
_cell_length_a   4.22804800
_cell_length_b   4.79180039
_cell_length_c   6.83800897
_cell_angle_alpha   90.51191598
_cell_angle_beta   95.69283121
_cell_angle_gamma   89.97692290
_symmetry_Int_Tables_number   1
_chemical_formula_structural   SrNb3H14
_chemical_formula_sum   'Sr1 Nb3 H14'
_cell_volume   137.84901372
_cell_formula_units_Z   1
loop_
 _symmetry_equiv_pos_site_id
 _symmetry_equiv_pos_as_xyz
  1  'x, y, z'
loop_
 _atom_site_type_symbol
 _atom_site_label
 _atom_site_symmetry_multiplicity
 _atom_site_fract_x
 _atom_site_fract_y
 _atom_site_fract_z
 _atom_site_occupancy
  H  H0  1  0.17119900  0.23871500  0.07112600  1
  H  H1  1  0.78405900  0.29539600  0.06265100  1
  H  H2  1  0.66926600  0.81753000  0.32043900  1
  H  H3  1  0.27987200  0.81723300  0.32789100  1
  H  H4  1  0.33768300  0.46029200  0.59381000  1
  H  H5  1  0.64172600  0.44283800  0.56675000  1
  H  H6  1  0.15857000  0.68289700  0.85549200  1
  H  H7  1  0.98547000  0.89712900  0.81028600  1
  Nb  Nb8  1  0.92494300  0.67688900  0.68956900  1
  Nb  Nb9  1  0.48547700  0.00632700  0.53506600  1
  H  H10  1  0.79774700  0.96366200  0.56565900  1
  Nb  Nb11  1  0.92494300  0.17688900  0.68956900  1
  H  H12  1  0.98547000  0.39712900  0.81028600  1
  H  H13  1  0.12952900  0.95404200  0.59694600  1
  H  H14  1  0.29910400  0.15942300  0.82455000  1
  H  H15  1  0.62627600  0.13771600  0.79290300  1
  Sr  Sr16  1  0.49549400  0.73058900  0.01576800  1
  H  H17  1  0.46793500  0.25404000  0.34390000  1
