# generated using pymatgen
data_SrNb2H15
_symmetry_space_group_name_H-M   'P 1'
_cell_length_a   3.66648200
_cell_length_b   5.86790610
_cell_length_c   6.39562458
_cell_angle_alpha   106.90867047
_cell_angle_beta   98.45412804
_cell_angle_gamma   90.98215722
_symmetry_Int_Tables_number   1
_chemical_formula_structural   SrNb2H15
_chemical_formula_sum   'Sr1 Nb2 H15'
_cell_volume   129.95901823
_cell_formula_units_Z   1
loop_
 _symmetry_equiv_pos_site_id
 _symmetry_equiv_pos_as_xyz
  1  'x, y, z'
loop_
 _atom_site_type_symbol
 _atom_site_label
 _atom_site_symmetry_multiplicity
 _atom_site_fract_x
 _atom_site_fract_y
 _atom_site_fract_z
 _atom_site_occupancy
  Nb  Nb0  1  0.08175000  0.25753700  0.63380400  1
  H  H1  1  0.33382000  0.18335800  0.60365200  1
  H  H2  1  0.01724200  0.89334200  0.35909200  1
  H  H3  1  0.81463900  0.80178400  0.24119300  1
  Nb  Nb4  1  0.31692900  0.91357800  0.39399100  1
  H  H5  1  0.82711600  0.04693600  0.51146800  1
  H  H6  1  0.31740700  0.41861100  0.94001900  1
  H  H7  1  0.32642900  0.38081300  0.05816500  1
  H  H8  1  0.02642900  0.28373300  0.33193300  1
  H  H9  1  0.33622400  0.17680000  0.24955600  1
  H  H10  1  0.40468300  0.56838400  0.40251400  1
  H  H11  1  0.16276700  0.57286300  0.39389100  1
  H  H12  1  0.84669700  0.57315400  0.72840800  1
  H  H13  1  0.78739400  0.56950300  0.85220400  1
  H  H14  1  0.10153200  0.61809300  0.63710000  1
  H  H15  1  0.31644700  0.83968700  0.69196700  1
  H  H16  1  0.31635100  0.81625900  0.07232600  1
  Sr  Sr17  1  0.82548300  0.04807400  0.91629300  1
