# generated using pymatgen
data_Sr(NbH6)2
_symmetry_space_group_name_H-M   'P 1'
_cell_length_a   4.43778100
_cell_length_b   4.59061416
_cell_length_c   6.29057263
_cell_angle_alpha   95.83872612
_cell_angle_beta   107.14648081
_cell_angle_gamma   110.02469979
_symmetry_Int_Tables_number   1
_chemical_formula_structural   Sr(NbH6)2
_chemical_formula_sum   'Sr1 Nb2 H12'
_cell_volume   112.08323827
_cell_formula_units_Z   1
loop_
 _symmetry_equiv_pos_site_id
 _symmetry_equiv_pos_as_xyz
  1  'x, y, z'
loop_
 _atom_site_type_symbol
 _atom_site_label
 _atom_site_symmetry_multiplicity
 _atom_site_fract_x
 _atom_site_fract_y
 _atom_site_fract_z
 _atom_site_occupancy
  H  H0  1  0.10122100  0.35346300  0.76148900  1
  H  H1  1  0.91631000  0.31403000  0.66364500  1
  H  H2  1  0.31159400  0.64747500  0.14077200  1
  H  H3  1  0.70497800  0.81926400  0.34775500  1
  H  H4  1  0.65387800  0.00430800  0.11964400  1
  Nb  Nb5  1  0.56178900  0.14759600  0.34730200  1
  H  H6  1  0.02842600  0.20724500  0.35879400  1
  H  H7  1  0.99927400  0.89013800  0.14361700  1
  H  H8  1  0.90218900  0.53963000  0.93117200  1
  H  H9  1  0.01180100  0.23062300  0.03046500  1
  H  H10  1  0.19467100  0.87168100  0.87313500  1
  Nb  Nb11  1  0.54638600  0.16538700  0.81451000  1
  H  H12  1  0.69643200  0.61686300  0.66568700  1
  H  H13  1  0.71552500  0.42392300  0.14942800  1
  Sr  Sr14  1  0.22643200  0.76258400  0.49623400  1
