# generated using pymatgen
data_SrNbH6
_symmetry_space_group_name_H-M   'P 1'
_cell_length_a   4.60796100
_cell_length_b   5.58351131
_cell_length_c   5.94795869
_cell_angle_alpha   88.12931131
_cell_angle_beta   83.91333308
_cell_angle_gamma   76.63373307
_symmetry_Int_Tables_number   1
_chemical_formula_structural   SrNbH6
_chemical_formula_sum   'Sr2 Nb2 H12'
_cell_volume   148.04277754
_cell_formula_units_Z   2
loop_
 _symmetry_equiv_pos_site_id
 _symmetry_equiv_pos_as_xyz
  1  'x, y, z'
loop_
 _atom_site_type_symbol
 _atom_site_label
 _atom_site_symmetry_multiplicity
 _atom_site_fract_x
 _atom_site_fract_y
 _atom_site_fract_z
 _atom_site_occupancy
  H  H0  1  0.18539100  0.55154000  0.08192000  1
  H  H1  1  0.09847500  0.61809300  0.91067700  1
  H  H2  1  0.75735200  0.69173500  0.01175600  1
  H  H3  1  0.24904800  0.20120300  0.70157900  1
  Nb  Nb4  1  0.07869300  0.25753700  0.90738200  1
  H  H5  1  0.89144000  0.17121000  0.70411000  1
  H  H6  1  0.72395200  0.02380100  0.91186800  1
  H  H7  1  0.39237300  0.14723600  0.07611000  1
  Sr  Sr8  1  0.93959000  0.99765000  0.14548300  1
  H  H9  1  0.13530300  0.93598000  0.46751000  1
  H  H10  1  0.48879800  0.95562000  0.47126800  1
  Nb  Nb11  1  0.19158700  0.24991300  0.39303100  1
  H  H12  1  0.90029700  0.33567700  0.28508500  1
  H  H13  1  0.49290200  0.37672300  0.25800500  1
  H  H14  1  0.96456400  0.55123900  0.50912300  1
  Sr  Sr15  1  0.46542200  0.50550800  0.62121200  1
