# generated using pymatgen
data_SrNbH19
_symmetry_space_group_name_H-M   'P 1'
_cell_length_a   4.87771600
_cell_length_b   5.33124088
_cell_length_c   6.09531142
_cell_angle_alpha   76.66524691
_cell_angle_beta   84.82397228
_cell_angle_gamma   89.36358219
_symmetry_Int_Tables_number   1
_chemical_formula_structural   SrNbH19
_chemical_formula_sum   'Sr1 Nb1 H19'
_cell_volume   153.59415942
_cell_formula_units_Z   1
loop_
 _symmetry_equiv_pos_site_id
 _symmetry_equiv_pos_as_xyz
  1  'x, y, z'
loop_
 _atom_site_type_symbol
 _atom_site_label
 _atom_site_symmetry_multiplicity
 _atom_site_fract_x
 _atom_site_fract_y
 _atom_site_fract_z
 _atom_site_occupancy
  H  H0  1  0.59846700  0.42047800  0.98134600  1
  H  H1  1  0.46912100  0.39876000  0.05781900  1
  H  H2  1  0.04735700  0.16119200  0.02464400  1
  H  H3  1  0.08459300  0.15587200  0.14043900  1
  H  H4  1  0.15643300  0.44662500  0.78815700  1
  H  H5  1  0.29016300  0.48439600  0.70149800  1
  H  H6  1  0.18362000  0.88007600  0.80136500  1
  H  H7  1  0.28510100  0.90137200  0.87982700  1
  H  H8  1  0.25986400  0.60464200  0.24928000  1
  H  H9  1  0.11461400  0.60194100  0.19363900  1
  H  H10  1  0.82800700  0.42012400  0.29626000  1
  H  H11  1  0.50220200  0.98421600  0.07565300  1
  H  H12  1  0.61757100  0.89503400  0.11374300  1
  H  H13  1  0.85214200  0.79998600  0.30661500  1
  Sr  Sr14  1  0.98094500  0.54150700  0.50526100  1
  H  H15  1  0.62159500  0.55096800  0.52350700  1
  H  H16  1  0.16937900  0.83531500  0.47740100  1
  H  H17  1  0.13617100  0.23820800  0.47991600  1
  H  H18  1  0.82659700  0.28139900  0.72801000  1
  H  H19  1  0.84063700  0.70147500  0.72539600  1
  Nb  Nb20  1  0.58393400  0.04893900  0.50250200  1
