# generated using pymatgen
data_SrNbH7
_symmetry_space_group_name_H-M   'P 1'
_cell_length_a   3.31039300
_cell_length_b   6.76564264
_cell_length_c   8.36635982
_cell_angle_alpha   69.82592252
_cell_angle_beta   80.81380239
_cell_angle_gamma   76.56252363
_symmetry_Int_Tables_number   1
_chemical_formula_structural   SrNbH7
_chemical_formula_sum   'Sr1 Nb1 H7'
_cell_volume   170.42000035
_cell_formula_units_Z   1
loop_
 _symmetry_equiv_pos_site_id
 _symmetry_equiv_pos_as_xyz
  1  'x, y, z'
loop_
 _atom_site_type_symbol
 _atom_site_label
 _atom_site_symmetry_multiplicity
 _atom_site_fract_x
 _atom_site_fract_y
 _atom_site_fract_z
 _atom_site_occupancy
  H  H0  1  0.76306400  0.10315400  0.72039900  1
  Sr  Sr1  1  0.16608800  0.07308300  0.65086400  1
  H  H2  1  0.03582500  0.54594100  0.32288300  1
  H  H3  1  0.84527000  0.69404200  0.20276100  1
  H  H4  1  0.69522400  0.49451300  0.46515100  1
  H  H5  1  0.59917500  0.42619800  0.65212800  1
  Nb  Nb6  1  0.26521100  0.43002800  0.13574700  1
  H  H7  1  0.28980100  0.91247700  0.43525100  1
  H  H8  1  0.04448600  0.61166700  0.84062600  1
