# generated using pymatgen
data_SrNbH23
_symmetry_space_group_name_H-M   'P 1'
_cell_length_a   4.75224200
_cell_length_b   5.99225877
_cell_length_c   6.35855684
_cell_angle_alpha   80.38888515
_cell_angle_beta   87.56848572
_cell_angle_gamma   83.79629793
_symmetry_Int_Tables_number   1
_chemical_formula_structural   SrNbH23
_chemical_formula_sum   'Sr1 Nb1 H23'
_cell_volume   177.42852961
_cell_formula_units_Z   1
loop_
 _symmetry_equiv_pos_site_id
 _symmetry_equiv_pos_as_xyz
  1  'x, y, z'
loop_
 _atom_site_type_symbol
 _atom_site_label
 _atom_site_symmetry_multiplicity
 _atom_site_fract_x
 _atom_site_fract_y
 _atom_site_fract_z
 _atom_site_occupancy
  H  H0  1  0.03446800  0.65593800  0.81339000  1
  H  H1  1  0.75854600  0.70351800  0.85394900  1
  H  H2  1  0.49298900  0.24542300  0.63465600  1
  H  H3  1  0.60377500  0.18485600  0.70938300  1
  H  H4  1  0.39936700  0.53442100  0.67324900  1
  H  H5  1  0.51904400  0.53099500  0.75938500  1
  H  H6  1  0.00652100  0.00908900  0.46957000  1
  H  H7  1  0.00113700  0.12609700  0.50663400  1
  H  H8  1  0.93448400  0.98885400  0.68838100  1
  H  H9  1  0.03446800  0.65593800  0.31339000  1
  H  H10  1  0.18792600  0.71313400  0.35287500  1
  H  H11  1  0.97032800  0.55009900  0.18990400  1
  H  H12  1  0.77818800  0.68287800  0.36217900  1
  H  H13  1  0.45403100  0.44127400  0.23118400  1
  H  H14  1  0.55372400  0.50918700  0.23363600  1
  H  H15  1  0.31287100  0.23681700  0.21042900  1
  H  H16  1  0.27798700  0.16539900  0.12208900  1
  H  H17  1  0.00652100  0.00908900  0.96957000  1
  H  H18  1  0.00113700  0.12609700  0.00663400  1
  H  H19  1  0.81313600  0.18754900  0.09656100  1
  H  H20  1  0.84630500  0.24440000  0.20781500  1
  H  H21  1  0.25143700  0.94841700  0.99670300  1
  Nb  Nb22  1  0.96486000  0.81255900  0.05682700  1
  H  H23  1  0.65697100  0.93566800  0.03977100  1
  Sr  Sr24  1  0.46323600  0.89624500  0.54258500  1
