# generated using pymatgen
data_SrNbH13
_symmetry_space_group_name_H-M   'P 1'
_cell_length_a   4.03743200
_cell_length_b   5.06559243
_cell_length_c   5.98880306
_cell_angle_alpha   102.08609944
_cell_angle_beta   98.75128741
_cell_angle_gamma   93.41638530
_symmetry_Int_Tables_number   1
_chemical_formula_structural   SrNbH13
_chemical_formula_sum   'Sr1 Nb1 H13'
_cell_volume   117.84251438
_cell_formula_units_Z   1
loop_
 _symmetry_equiv_pos_site_id
 _symmetry_equiv_pos_as_xyz
  1  'x, y, z'
loop_
 _atom_site_type_symbol
 _atom_site_label
 _atom_site_symmetry_multiplicity
 _atom_site_fract_x
 _atom_site_fract_y
 _atom_site_fract_z
 _atom_site_occupancy
  H  H0  1  0.12395100  0.17237500  0.40303300  1
  H  H1  1  0.16771000  0.25499100  0.37561900  1
  H  H2  1  0.15446800  0.01832100  0.37765300  1
  H  H3  1  0.38734400  0.21834000  0.74767000  1
  H  H4  1  0.57866000  0.18284200  0.71566700  1
  H  H5  1  0.15794500  0.56094400  0.76241600  1
  H  H6  1  0.27002700  0.62281500  0.60711700  1
  Nb  Nb7  1  0.36921400  0.91818100  0.75099700  1
  H  H8  1  0.45341400  0.74836100  0.90964800  1
  H  H9  1  0.48003400  0.84892300  0.50053900  1
  H  H10  1  0.91148900  0.82190400  0.78062700  1
  H  H11  1  0.56867200  0.67062400  0.18244300  1
  Sr  Sr12  1  0.68429100  0.47070000  0.39406700  1
  H  H13  1  0.54840000  0.10412700  0.04966600  1
  H  H14  1  0.87918100  0.46897400  0.03431500  1
