# generated using pymatgen
data_Sr(NbH7)3
_symmetry_space_group_name_H-M   'P 1'
_cell_length_a   4.47823700
_cell_length_b   5.41763946
_cell_length_c   7.47103328
_cell_angle_alpha   83.70455257
_cell_angle_beta   85.34778639
_cell_angle_gamma   88.82125641
_symmetry_Int_Tables_number   1
_chemical_formula_structural   Sr(NbH7)3
_chemical_formula_sum   'Sr1 Nb3 H21'
_cell_volume   179.55917731
_cell_formula_units_Z   1
loop_
 _symmetry_equiv_pos_site_id
 _symmetry_equiv_pos_as_xyz
  1  'x, y, z'
loop_
 _atom_site_type_symbol
 _atom_site_label
 _atom_site_symmetry_multiplicity
 _atom_site_fract_x
 _atom_site_fract_y
 _atom_site_fract_z
 _atom_site_occupancy
  H  H0  1  0.21237400  0.56619300  0.17758200  1
  Nb  Nb1  1  0.15367600  0.40674500  0.26441300  1
  H  H2  1  0.78308700  0.53425100  0.55153800  1
  H  H3  1  0.02585500  0.40728300  0.46634100  1
  H  H4  1  0.84277700  0.24438600  0.63964800  1
  H  H5  1  0.43473000  0.83291000  0.74801000  1
  H  H6  1  0.52826400  0.05210400  0.77215200  1
  H  H7  1  0.22779800  0.98559500  0.12879000  1
  H  H8  1  0.34598000  0.10946300  0.21747600  1
  H  H9  1  0.87851600  0.29971300  0.02490400  1
  H  H10  1  0.95447100  0.17819700  0.07029500  1
  H  H11  1  0.77466900  0.97221200  0.14816000  1
  H  H12  1  0.81461000  0.02176800  0.29610000  1
  H  H13  1  0.07506700  0.03521700  0.85399100  1
  H  H14  1  0.18816500  0.26240300  0.86629800  1
  Nb  Nb15  1  0.07424600  0.81788000  0.98210100  1
  H  H16  1  0.09896000  0.49189600  0.94800400  1
  Nb  Nb17  1  0.33530200  0.31255600  0.68078900  1
  H  H18  1  0.95474200  0.82096600  0.74818400  1
  H  H19  1  0.61826800  0.39008300  0.88326800  1
  H  H20  1  0.74912800  0.56324300  0.17589400  1
  H  H21  1  0.63669200  0.48342100  0.23888100  1
  H  H22  1  0.49188300  0.35173700  0.44136500  1
  Sr  Sr23  1  0.33762000  0.64826800  0.45993600  1
  H  H24  1  0.27008500  0.03599600  0.52601800  1
