# generated using pymatgen
data_Sr2Nb2H15
_symmetry_space_group_name_H-M   'P 1'
_cell_length_a   4.91930800
_cell_length_b   5.30685582
_cell_length_c   6.86036942
_cell_angle_alpha   78.59973412
_cell_angle_beta   80.26047516
_cell_angle_gamma   77.91491154
_symmetry_Int_Tables_number   1
_chemical_formula_structural   Sr2Nb2H15
_chemical_formula_sum   'Sr2 Nb2 H15'
_cell_volume   170.14043687
_cell_formula_units_Z   1
loop_
 _symmetry_equiv_pos_site_id
 _symmetry_equiv_pos_as_xyz
  1  'x, y, z'
loop_
 _atom_site_type_symbol
 _atom_site_label
 _atom_site_symmetry_multiplicity
 _atom_site_fract_x
 _atom_site_fract_y
 _atom_site_fract_z
 _atom_site_occupancy
  Nb  Nb0  1  0.72766800  0.54709100  0.34336500  1
  H  H1  1  0.46850000  0.65694900  0.50724000  1
  H  H2  1  0.76089900  0.37735300  0.13523200  1
  H  H3  1  0.09739400  0.62885400  0.38202100  1
  H  H4  1  0.37649900  0.42603600  0.30885400  1
  H  H5  1  0.77577800  0.88343800  0.35465300  1
  H  H6  1  0.84898600  0.46891000  0.61889100  1
  H  H7  1  0.96951700  0.23599700  0.45138700  1
  H  H8  1  0.03022200  0.93102100  0.95807200  1
  H  H9  1  0.93954200  0.74723300  0.11527500  1
  H  H10  1  0.05080400  0.22291800  0.80785400  1
  Nb  Nb11  1  0.23822900  0.34289300  0.60531100  1
  H  H12  1  0.57341700  0.22046700  0.55532800  1
  H  H13  1  0.17567200  0.51422400  0.80529600  1
  H  H14  1  0.23812800  0.98660900  0.63098200  1
  H  H15  1  0.46356500  0.21238600  0.84091100  1
  H  H16  1  0.53336000  0.78562700  0.12715100  1
  Sr  Sr17  1  0.21557300  0.09466700  0.17198000  1
  Sr  Sr18  1  0.73550000  0.80036700  0.78179900  1
