# generated using pymatgen
data_SrNbH16
_symmetry_space_group_name_H-M   'P 1'
_cell_length_a   4.80696300
_cell_length_b   5.00562164
_cell_length_c   5.71160882
_cell_angle_alpha   98.42689066
_cell_angle_beta   91.44908863
_cell_angle_gamma   92.75407548
_symmetry_Int_Tables_number   1
_chemical_formula_structural   SrNbH16
_chemical_formula_sum   'Sr1 Nb1 H16'
_cell_volume   135.71831036
_cell_formula_units_Z   1
loop_
 _symmetry_equiv_pos_site_id
 _symmetry_equiv_pos_as_xyz
  1  'x, y, z'
loop_
 _atom_site_type_symbol
 _atom_site_label
 _atom_site_symmetry_multiplicity
 _atom_site_fract_x
 _atom_site_fract_y
 _atom_site_fract_z
 _atom_site_occupancy
  H  H0  1  0.20111300  0.84355000  0.95026300  1
  H  H1  1  0.21130000  0.75782900  0.06132700  1
  H  H2  1  0.91675200  0.18132000  0.01833400  1
  H  H3  1  0.97211200  0.22715200  0.95256700  1
  H  H4  1  0.98301000  0.32416700  0.06027600  1
  H  H5  1  0.28995300  0.96047800  0.36018200  1
  H  H6  1  0.36348900  0.08460000  0.32001600  1
  H  H7  1  0.65629300  0.17947200  0.48420800  1
  H  H8  1  0.66828500  0.75287800  0.09278300  1
  H  H9  1  0.77770100  0.86745800  0.11439500  1
  H  H10  1  0.92197300  0.97976500  0.29283100  1
  Nb  Nb11  1  0.68774200  0.82302700  0.43944600  1
  H  H12  1  0.47077600  0.58474800  0.33472400  1
  H  H13  1  0.95255800  0.88919100  0.65933100  1
  H  H14  1  0.75212900  0.56389300  0.66832600  1
  H  H15  1  0.98859300  0.55608300  0.35485700  1
  H  H16  1  0.46750200  0.93030400  0.70753300  1
  Sr  Sr17  1  0.28432800  0.44309000  0.69371700  1
