# generated using pymatgen
data_SrNbH12
_symmetry_space_group_name_H-M   'P 1'
_cell_length_a   3.96805100
_cell_length_b   4.99790820
_cell_length_c   5.82939516
_cell_angle_alpha   83.95670428
_cell_angle_beta   82.87967359
_cell_angle_gamma   78.12932980
_symmetry_Int_Tables_number   1
_chemical_formula_structural   SrNbH12
_chemical_formula_sum   'Sr1 Nb1 H12'
_cell_volume   111.88390753
_cell_formula_units_Z   1
loop_
 _symmetry_equiv_pos_site_id
 _symmetry_equiv_pos_as_xyz
  1  'x, y, z'
loop_
 _atom_site_type_symbol
 _atom_site_label
 _atom_site_symmetry_multiplicity
 _atom_site_fract_x
 _atom_site_fract_y
 _atom_site_fract_z
 _atom_site_occupancy
  H  H0  1  0.67317500  0.68764900  0.53283600  1
  H  H1  1  0.52754400  0.82372800  0.44175800  1
  H  H2  1  0.97488700  0.87420500  0.72472800  1
  H  H3  1  0.13433400  0.72235600  0.76815800  1
  Nb  Nb4  1  0.32857000  0.01786400  0.67810600  1
  H  H5  1  0.16371300  0.26076000  0.56118900  1
  H  H6  1  0.22723500  0.26783300  0.87734100  1
  H  H7  1  0.62165300  0.25601700  0.56357900  1
  H  H8  1  0.47595100  0.86576800  0.99162300  1
  H  H9  1  0.65117000  0.73677400  0.00724200  1
  H  H10  1  0.05436000  0.80717000  0.17820900  1
  H  H11  1  0.13086200  0.74012700  0.31886800  1
  Sr  Sr12  1  0.04940900  0.14375600  0.23314700  1
  H  H13  1  0.59176000  0.37854300  0.15089100  1
