# generated using pymatgen
data_Sr2Nb3H17
_symmetry_space_group_name_H-M   'P 1'
_cell_length_a   4.91218700
_cell_length_b   4.95463150
_cell_length_c   7.48864762
_cell_angle_alpha   89.73750811
_cell_angle_beta   89.89697133
_cell_angle_gamma   89.93191065
_symmetry_Int_Tables_number   1
_chemical_formula_structural   Sr2Nb3H17
_chemical_formula_sum   'Sr2 Nb3 H17'
_cell_volume   182.25694397
_cell_formula_units_Z   1
loop_
 _symmetry_equiv_pos_site_id
 _symmetry_equiv_pos_as_xyz
  1  'x, y, z'
loop_
 _atom_site_type_symbol
 _atom_site_label
 _atom_site_symmetry_multiplicity
 _atom_site_fract_x
 _atom_site_fract_y
 _atom_site_fract_z
 _atom_site_occupancy
  H  H0  1  0.12919000  0.73613700  0.86393300  1
  H  H1  1  0.04872900  0.53094900  0.01257800  1
  H  H2  1  0.81186000  0.80254500  0.72005300  1
  Nb  Nb3  1  0.84486000  0.67688900  0.59904700  1
  H  H4  1  0.52721400  0.80608500  0.71833500  1
  H  H5  1  0.78433400  0.89712900  0.47833000  1
  H  H6  1  0.71634900  0.11128600  0.33634500  1
  H  H7  1  0.78433400  0.39712900  0.47833000  1
  H  H8  1  0.71634900  0.61128600  0.33634500  1
  Nb  Nb9  1  0.75749100  0.24073300  0.65869000  1
  H  H10  1  0.60894800  0.18121400  0.97053200  1
  H  H11  1  0.55257300  0.28019000  0.01394400  1
  H  H12  1  0.38932200  0.23914200  0.85626800  1
  Nb  Nb13  1  0.16331000  0.29407600  0.74363800  1
  H  H14  1  0.10545000  0.17638600  0.99015300  1
  H  H15  1  0.04872900  0.03094900  0.01257800  1
  H  H16  1  0.88349100  0.23205400  0.85874800  1
  H  H17  1  0.55257300  0.78019000  0.01394400  1
  Sr  Sr18  1  0.16841700  0.83891200  0.24423200  1
  Sr  Sr19  1  0.16841700  0.33891200  0.24423200  1
  H  H20  1  0.28541200  0.14684500  0.47934100  1
  H  H21  1  0.28541200  0.64684500  0.47934100  1
