# generated using pymatgen
data_SrNbH6
_symmetry_space_group_name_H-M   'P 1'
_cell_length_a   2.77743400
_cell_length_b   6.05408121
_cell_length_c   9.45612611
_cell_angle_alpha   96.82457236
_cell_angle_beta   95.46791236
_cell_angle_gamma   94.41322028
_symmetry_Int_Tables_number   1
_chemical_formula_structural   SrNbH6
_chemical_formula_sum   'Sr1 Nb1 H6'
_cell_volume   156.52999679
_cell_formula_units_Z   1
loop_
 _symmetry_equiv_pos_site_id
 _symmetry_equiv_pos_as_xyz
  1  'x, y, z'
loop_
 _atom_site_type_symbol
 _atom_site_label
 _atom_site_symmetry_multiplicity
 _atom_site_fract_x
 _atom_site_fract_y
 _atom_site_fract_z
 _atom_site_occupancy
  H  H0  1  0.49505800  0.75585700  0.57244900  1
  H  H1  1  0.21430500  0.99341900  0.68281900  1
  H  H2  1  0.15159100  0.17975600  0.04800100  1
  Nb  Nb3  1  0.05189400  0.23173300  0.22794700  1
  H  H4  1  0.17180300  0.93333500  0.25664300  1
  Sr  Sr5  1  0.66559700  0.17075000  0.86620300  1
  H  H6  1  0.48068600  0.54252100  0.14791300  1
  H  H7  1  0.76414200  0.37437300  0.66176800  1
