# generated using pymatgen
data_Sr2Nb2H17
_symmetry_space_group_name_H-M   'P 1'
_cell_length_a   4.60023400
_cell_length_b   5.94937194
_cell_length_c   6.82519385
_cell_angle_alpha   99.53617205
_cell_angle_beta   95.58389605
_cell_angle_gamma   95.72531801
_symmetry_Int_Tables_number   1
_chemical_formula_structural   Sr2Nb2H17
_chemical_formula_sum   'Sr2 Nb2 H17'
_cell_volume   182.05764345
_cell_formula_units_Z   1
loop_
 _symmetry_equiv_pos_site_id
 _symmetry_equiv_pos_as_xyz
  1  'x, y, z'
loop_
 _atom_site_type_symbol
 _atom_site_label
 _atom_site_symmetry_multiplicity
 _atom_site_fract_x
 _atom_site_fract_y
 _atom_site_fract_z
 _atom_site_occupancy
  H  H0  1  0.62515500  0.83967300  0.98184900  1
  H  H1  1  0.83197400  0.77708900  0.19294200  1
  H  H2  1  0.94635700  0.59213500  0.90035100  1
  H  H3  1  0.07626900  0.54992400  0.83656200  1
  H  H4  1  0.39983000  0.51711900  0.71816400  1
  H  H5  1  0.15124500  0.06517900  0.17254800  1
  H  H6  1  0.43728900  0.09762900  0.18516200  1
  Nb  Nb7  1  0.79799200  0.10710900  0.21526300  1
  H  H8  1  0.72262200  0.22413300  0.01061200  1
  H  H9  1  0.56476800  0.94859300  0.38256500  1
  H  H10  1  0.17865800  0.84195800  0.40975500  1
  H  H11  1  0.04462500  0.96769700  0.49141500  1
  H  H12  1  0.99684600  0.20461400  0.48493900  1
  Nb  Nb13  1  0.34981600  0.19676600  0.48908400  1
  H  H14  1  0.53746900  0.18916300  0.70487100  1
  H  H15  1  0.17858200  0.14668700  0.71844600  1
  H  H16  1  0.69221200  0.36363900  0.46925900  1
  H  H17  1  0.35558800  0.49669800  0.43453200  1
  Sr  Sr18  1  0.78176600  0.84160200  0.63785300  1
  H  H19  1  0.98854800  0.43926700  0.25290000  1
  Sr  Sr20  1  0.36849800  0.47238800  0.06467800  1
