# generated using pymatgen
data_SrNb5H18
_symmetry_space_group_name_H-M   'P 1'
_cell_length_a   3.65268400
_cell_length_b   6.75901062
_cell_length_c   7.99352555
_cell_angle_alpha   100.02948328
_cell_angle_beta   101.16792252
_cell_angle_gamma   90.19864919
_symmetry_Int_Tables_number   1
_chemical_formula_structural   SrNb5H18
_chemical_formula_sum   'Sr1 Nb5 H18'
_cell_volume   190.51125405
_cell_formula_units_Z   1
loop_
 _symmetry_equiv_pos_site_id
 _symmetry_equiv_pos_as_xyz
  1  'x, y, z'
loop_
 _atom_site_type_symbol
 _atom_site_label
 _atom_site_symmetry_multiplicity
 _atom_site_fract_x
 _atom_site_fract_y
 _atom_site_fract_z
 _atom_site_occupancy
  H  H0  1  0.39165000  0.95463600  0.34252000  1
  H  H1  1  0.04551700  0.99835700  0.48590500  1
  Nb  Nb2  1  0.81900700  0.93855800  0.23436800  1
  H  H3  1  0.64956700  0.49265500  0.47434500  1
  H  H4  1  0.14225600  0.49383000  0.49083100  1
  H  H5  1  0.67267200  0.64590900  0.10025000  1
  H  H6  1  0.55334400  0.63804000  0.19845000  1
  Nb  Nb7  1  0.78603800  0.43467200  0.24152900  1
  H  H8  1  0.25059700  0.43934000  0.14984300  1
  H  H9  1  0.83191800  0.32393200  0.00179900  1
  H  H10  1  0.07580100  0.68979600  0.29101900  1
  Nb  Nb11  1  0.59100000  0.07290700  0.89539200  1
  Nb  Nb12  1  0.41480200  0.75169000  0.50890500  1
  H  H13  1  0.44001600  0.87963700  0.01939800  1
  H  H14  1  0.06000900  0.07515400  0.82163800  1
  H  H15  1  0.09845100  0.20398400  0.27160000  1
  Nb  Nb16  1  0.40849500  0.24344400  0.50639500  1
  H  H17  1  0.51130200  0.31888400  0.75937400  1
  H  H18  1  0.53788400  0.77781600  0.76250300  1
  H  H19  1  0.94640000  0.27875200  0.60699700  1
  H  H20  1  0.51946400  0.16543200  0.13441700  1
  H  H21  1  0.95753400  0.76008100  0.60669700  1
  H  H22  1  0.59469300  0.02488000  0.63588800  1
  Sr  Sr23  1  0.07732800  0.56833700  0.86313700  1
