# generated using pymatgen
data_SrNbH23
_symmetry_space_group_name_H-M   'P 1'
_cell_length_a   4.86239100
_cell_length_b   5.19726655
_cell_length_c   7.23201444
_cell_angle_alpha   85.24411331
_cell_angle_beta   80.16096071
_cell_angle_gamma   97.63786385
_symmetry_Int_Tables_number   1
_chemical_formula_structural   SrNbH23
_chemical_formula_sum   'Sr1 Nb1 H23'
_cell_volume   177.42852711
_cell_formula_units_Z   1
loop_
 _symmetry_equiv_pos_site_id
 _symmetry_equiv_pos_as_xyz
  1  'x, y, z'
loop_
 _atom_site_type_symbol
 _atom_site_label
 _atom_site_symmetry_multiplicity
 _atom_site_fract_x
 _atom_site_fract_y
 _atom_site_fract_z
 _atom_site_occupancy
  H  H0  1  0.59287000  0.77846300  0.11240900  1
  H  H1  1  0.58102200  0.74536900  0.20566400  1
  H  H2  1  0.73628700  0.57350000  0.11055200  1
  H  H3  1  0.72264500  0.01256500  0.14444100  1
  H  H4  1  0.40774200  0.82485300  0.76871600  1
  H  H5  1  0.45155200  0.77889800  0.69415200  1
  H  H6  1  0.46053300  0.66400000  0.64991600  1
  H  H7  1  0.66221500  0.90170300  0.44870800  1
  H  H8  1  0.64316900  0.72873000  0.45776000  1
  H  H9  1  0.62238100  0.04088800  0.52189700  1
  H  H10  1  0.15673800  0.76721800  0.48534500  1
  H  H11  1  0.17201800  0.86117700  0.40725300  1
  H  H12  1  0.26030900  0.03835700  0.45440900  1
  H  H13  1  0.21144300  0.55803900  0.46285800  1
  H  H14  1  0.99764000  0.95041600  0.63970900  1
  H  H15  1  0.94444400  0.96942600  0.72153900  1
  H  H16  1  0.24585300  0.99286900  0.93712500  1
  H  H17  1  0.28299500  0.93647400  0.02213800  1
  H  H18  1  0.18479300  0.05244100  0.83486400  1
  H  H19  1  0.97895400  0.28531900  0.66683100  1
  Nb  Nb20  1  0.33501300  0.31649100  0.63278400  1
  H  H21  1  0.64447300  0.40960100  0.38468900  1
  H  H22  1  0.51382000  0.29872800  0.82845200  1
  H  H23  1  0.12321200  0.49829300  0.86879800  1
  Sr  Sr24  1  0.10507200  0.26580200  0.18747100  1
