# generated using pymatgen
data_Sr3NbH16
_symmetry_space_group_name_H-M   'P 1'
_cell_length_a   5.44318500
_cell_length_b   6.01032134
_cell_length_c   6.49051058
_cell_angle_alpha   79.66147636
_cell_angle_beta   83.68392208
_cell_angle_gamma   78.71858946
_symmetry_Int_Tables_number   1
_chemical_formula_structural   Sr3NbH16
_chemical_formula_sum   'Sr3 Nb1 H16'
_cell_volume   204.23698155
_cell_formula_units_Z   1
loop_
 _symmetry_equiv_pos_site_id
 _symmetry_equiv_pos_as_xyz
  1  'x, y, z'
loop_
 _atom_site_type_symbol
 _atom_site_label
 _atom_site_symmetry_multiplicity
 _atom_site_fract_x
 _atom_site_fract_y
 _atom_site_fract_z
 _atom_site_occupancy
  H  H0  1  0.24922500  0.94975700  0.72732400  1
  H  H1  1  0.11325800  0.08006900  0.85207100  1
  H  H2  1  0.24922500  0.44975700  0.72732400  1
  H  H3  1  0.24405600  0.55183800  0.73703300  1
  H  H4  1  0.43154800  0.30357500  0.52396200  1
  H  H5  1  0.33075000  0.21198800  0.65560900  1
  H  H6  1  0.13370800  0.22671500  0.44781800  1
  H  H7  1  0.43154800  0.80357500  0.52396200  1
  Sr  Sr8  1  0.18592100  0.31217900  0.16123600  1
  Nb  Nb9  1  0.81710900  0.67405500  0.05519500  1
  H  H10  1  0.85801700  0.43669200  0.99922700  1
  H  H11  1  0.85801700  0.93669200  0.99922700  1
  H  H12  1  0.13280500  0.68673400  0.99335600  1
  H  H13  1  0.56693000  0.62344800  0.25463300  1
  H  H14  1  0.53676400  0.70929100  0.91344500  1
  H  H15  1  0.89041100  0.74109900  0.76811200  1
  H  H16  1  0.97870200  0.61313100  0.31344400  1
  Sr  Sr17  1  0.67253600  0.52962400  0.61157500  1
  Sr  Sr18  1  0.29794200  0.89290700  0.17751900  1
  H  H19  1  0.65475000  0.17125100  0.20591400  1
