# generated using pymatgen
data_Sr2NbH15
_symmetry_space_group_name_H-M   'P 1'
_cell_length_a   4.66705400
_cell_length_b   5.98357777
_cell_length_c   6.66233676
_cell_angle_alpha   68.72592946
_cell_angle_beta   81.93598231
_cell_angle_gamma   79.56899442
_symmetry_Int_Tables_number   1
_chemical_formula_structural   Sr2NbH15
_chemical_formula_sum   'Sr2 Nb1 H15'
_cell_volume   169.94111996
_cell_formula_units_Z   1
loop_
 _symmetry_equiv_pos_site_id
 _symmetry_equiv_pos_as_xyz
  1  'x, y, z'
loop_
 _atom_site_type_symbol
 _atom_site_label
 _atom_site_symmetry_multiplicity
 _atom_site_fract_x
 _atom_site_fract_y
 _atom_site_fract_z
 _atom_site_occupancy
  H  H0  1  0.02733800  0.29932500  0.48103900  1
  H  H1  1  0.92360800  0.28392100  0.23698000  1
  H  H2  1  0.64951800  0.35689800  0.78449300  1
  H  H3  1  0.82428300  0.58807700  0.57700800  1
  H  H4  1  0.99747500  0.52173500  0.84332900  1
  H  H5  1  0.92209600  0.54253700  0.95943700  1
  H  H6  1  0.19539900  0.46326500  0.80957700  1
  H  H7  1  0.01941200  0.15118400  0.95597600  1
  H  H8  1  0.03021000  0.98933300  0.96513900  1
  H  H9  1  0.65491700  0.96353500  0.78623100  1
  H  H10  1  0.90323100  0.90582000  0.82697800  1
  H  H11  1  0.20862100  0.83436500  0.80557400  1
  Nb  Nb12  1  0.33067600  0.18366600  0.73910300  1
  H  H13  1  0.47286900  0.04467300  0.01744500  1
  H  H14  1  0.41578100  0.09003300  0.49954600  1
  Sr  Sr15  1  0.86247400  0.90051000  0.28149300  1
  H  H16  1  0.41063500  0.51464000  0.49963900  1
  Sr  Sr17  1  0.44676300  0.48986800  0.12550400  1
