# generated using pymatgen
data_Sr(NbH11)2
_symmetry_space_group_name_H-M   'P 1'
_cell_length_a   5.33732900
_cell_length_b   6.05152330
_cell_length_c   5.74743864
_cell_angle_alpha   80.87567919
_cell_angle_beta   71.19629638
_cell_angle_gamma   79.23866220
_symmetry_Int_Tables_number   1
_chemical_formula_structural   Sr(NbH11)2
_chemical_formula_sum   'Sr1 Nb2 H22'
_cell_volume   171.66922994
_cell_formula_units_Z   1
loop_
 _symmetry_equiv_pos_site_id
 _symmetry_equiv_pos_as_xyz
  1  'x, y, z'
loop_
 _atom_site_type_symbol
 _atom_site_label
 _atom_site_symmetry_multiplicity
 _atom_site_fract_x
 _atom_site_fract_y
 _atom_site_fract_z
 _atom_site_occupancy
  H  H0  1  0.27529600  0.45567200  0.41997200  1
  H  H1  1  0.21707900  0.61736900  0.42517000  1
  H  H2  1  0.14388500  0.81851700  0.11853400  1
  H  H3  1  0.09403400  0.95474300  0.17302200  1
  H  H4  1  0.90265200  0.06314900  0.22096600  1
  H  H5  1  0.29872200  0.35062700  0.77722200  1
  H  H6  1  0.40261700  0.26035200  0.70780300  1
  H  H7  1  0.60684900  0.40444400  0.57813000  1
  H  H8  1  0.81708000  0.20059000  0.58620400  1
  Nb  Nb9  1  0.68870400  0.27628500  0.33410000  1
  H  H10  1  0.51905300  0.32998600  0.11407100  1
  H  H11  1  0.55638800  0.29240500  0.99285700  1
  H  H12  1  0.84974600  0.34533400  0.01960200  1
  H  H13  1  0.47811900  0.86050000  0.15667100  1
  H  H14  1  0.45731700  0.93587800  0.04056300  1
  H  H15  1  0.16104500  0.39251900  0.09932300  1
  H  H16  1  0.17775400  0.29914600  0.20353500  1
  H  H17  1  0.90265200  0.56314900  0.22096600  1
  H  H18  1  0.60684900  0.90444400  0.57813000  1
  H  H19  1  0.81708000  0.70059000  0.58620400  1
  H  H20  1  0.41177700  0.03369200  0.42299200  1
  Nb  Nb21  1  0.68870400  0.77628500  0.33410000  1
  H  H22  1  0.47093700  0.72433300  0.81117400  1
  H  H23  1  0.84974600  0.84533400  0.01960200  1
  Sr  Sr24  1  0.09934400  0.99550000  0.71850700  1
