# generated using pymatgen
data_SrNb2H7
_symmetry_space_group_name_H-M   'P 1'
_cell_length_a   3.83505900
_cell_length_b   4.48565198
_cell_length_c   11.05670977
_cell_angle_alpha   84.66997340
_cell_angle_beta   87.84633383
_cell_angle_gamma   85.57449132
_symmetry_Int_Tables_number   1
_chemical_formula_structural   SrNb2H7
_chemical_formula_sum   'Sr1 Nb2 H7'
_cell_volume   188.73001060
_cell_formula_units_Z   1
loop_
 _symmetry_equiv_pos_site_id
 _symmetry_equiv_pos_as_xyz
  1  'x, y, z'
loop_
 _atom_site_type_symbol
 _atom_site_label
 _atom_site_symmetry_multiplicity
 _atom_site_fract_x
 _atom_site_fract_y
 _atom_site_fract_z
 _atom_site_occupancy
  H  H0  1  0.84879500  0.13044200  0.61961700  1
  H  H1  1  0.06115200  0.03666800  0.52170100  1
  H  H2  1  0.64925700  0.73855200  0.62201800  1
  H  H3  1  0.51183700  0.36105500  0.87092000  1
  Nb  Nb4  1  0.85887600  0.57157900  0.84589200  1
  H  H5  1  0.97568000  0.95793100  0.27032000  1
  Nb  Nb6  1  0.66202000  0.91974100  0.31183500  1
  H  H7  1  0.90230000  0.49610600  0.16857900  1
  Sr  Sr8  1  0.92219800  0.83785300  0.12439300  1
  H  H9  1  0.93377200  0.36924300  0.01684900  1
