# generated using pymatgen
data_Sr2NbH7
_symmetry_space_group_name_H-M   'P 1'
_cell_length_a   5.49100600
_cell_length_b   6.47974485
_cell_length_c   7.69490157
_cell_angle_alpha   68.04289623
_cell_angle_beta   69.29835336
_cell_angle_gamma   65.98321217
_symmetry_Int_Tables_number   1
_chemical_formula_structural   Sr2NbH7
_chemical_formula_sum   'Sr2 Nb1 H7'
_cell_volume   225.29998291
_cell_formula_units_Z   1
loop_
 _symmetry_equiv_pos_site_id
 _symmetry_equiv_pos_as_xyz
  1  'x, y, z'
loop_
 _atom_site_type_symbol
 _atom_site_label
 _atom_site_symmetry_multiplicity
 _atom_site_fract_x
 _atom_site_fract_y
 _atom_site_fract_z
 _atom_site_occupancy
  H  H0  1  0.87941300  0.53471900  0.07394100  1
  H  H1  1  0.68319800  0.61302700  0.96163300  1
  H  H2  1  0.40182600  0.75813300  0.88138100  1
  Sr  Sr3  1  0.67250900  0.80526000  0.73319700  1
  H  H4  1  0.55175000  0.63885100  0.48750800  1
  H  H5  1  0.47058500  0.71466700  0.60945100  1
  H  H6  1  0.34817000  0.55586700  0.50005200  1
  H  H7  1  0.60256700  0.00408000  0.44028100  1
  Sr  Sr8  1  0.47430700  0.31147400  0.38560400  1
  Nb  Nb9  1  0.87965800  0.91866400  0.17583700  1
