# generated using pymatgen
data_Sr2NbH8
_symmetry_space_group_name_H-M   'P 1'
_cell_length_a   5.34508100
_cell_length_b   5.38764925
_cell_length_c   5.52036875
_cell_angle_alpha   61.12709318
_cell_angle_beta   62.85453084
_cell_angle_gamma   61.10823528
_symmetry_Int_Tables_number   1
_chemical_formula_structural   Sr2NbH8
_chemical_formula_sum   'Sr2 Nb1 H8'
_cell_volume   116.61688813
_cell_formula_units_Z   1
loop_
 _symmetry_equiv_pos_site_id
 _symmetry_equiv_pos_as_xyz
  1  'x, y, z'
loop_
 _atom_site_type_symbol
 _atom_site_label
 _atom_site_symmetry_multiplicity
 _atom_site_fract_x
 _atom_site_fract_y
 _atom_site_fract_z
 _atom_site_occupancy
  H  H0  1  0.34986200  0.88751900  0.17144600  1
  H  H1  1  0.24264800  0.87051900  0.30826500  1
  Nb  Nb2  1  0.80841300  0.48924400  0.75008700  1
  H  H3  1  0.81460900  0.80035500  0.44846000  1
  H  H4  1  0.10856000  0.17816500  0.82879000  1
  H  H5  1  0.51120200  0.41100700  0.04438000  1
  H  H6  1  0.60762700  0.80616600  0.85276400  1
  H  H7  1  0.50709800  0.62427000  0.62327700  1
  H  H8  1  0.03543600  0.37315200  0.44876100  1
  Sr  Sr9  1  0.06041000  0.73679200  0.00235000  1
  Sr  Sr10  1  0.53457800  0.26106300  0.49449200  1
