# generated using pymatgen
data_SrNb3H16
_symmetry_space_group_name_H-M   'P 1'
_cell_length_a   3.56325800
_cell_length_b   5.70280166
_cell_length_c   7.76063145
_cell_angle_alpha   103.59393967
_cell_angle_beta   101.92869762
_cell_angle_gamma   90.07326240
_symmetry_Int_Tables_number   1
_chemical_formula_structural   SrNb3H16
_chemical_formula_sum   'Sr1 Nb3 H16'
_cell_volume   149.76617819
_cell_formula_units_Z   1
loop_
 _symmetry_equiv_pos_site_id
 _symmetry_equiv_pos_as_xyz
  1  'x, y, z'
loop_
 _atom_site_type_symbol
 _atom_site_label
 _atom_site_symmetry_multiplicity
 _atom_site_fract_x
 _atom_site_fract_y
 _atom_site_fract_z
 _atom_site_occupancy
  H  H0  1  0.15514600  0.36328200  0.41592100  1
  H  H1  1  0.90710200  0.36757100  0.41907100  1
  H  H2  1  0.11102800  0.75540400  0.57542100  1
  H  H3  1  0.29309000  0.72899100  0.61207600  1
  H  H4  1  0.10949900  0.09658500  0.57070200  1
  H  H5  1  0.29140000  0.15454300  0.60762700  1
  H  H6  1  0.59479600  0.21950300  0.54209400  1
  Sr  Sr7  1  0.83151600  0.46748300  0.68907800  1
  Nb  Nb8  1  0.57895500  0.90186500  0.50766200  1
  H  H9  1  0.49820400  0.57231100  0.34977400  1
  H  H10  1  0.35700800  0.42118100  0.06044000  1
  H  H11  1  0.41876400  0.36211300  0.89680500  1
  Nb  Nb12  1  0.92344500  0.50082600  0.19781000  1
  H  H13  1  0.89922800  0.17045800  0.15169200  1
  H  H14  1  0.84212700  0.69740400  0.03298000  1
  H  H15  1  0.63716800  0.78051000  0.92037600  1
  H  H16  1  0.16494500  0.80654500  0.92342300  1
  Nb  Nb17  1  0.38082800  0.01286400  0.81911500  1
  H  H18  1  0.86102800  0.05188900  0.76128600  1
  H  H19  1  0.99303500  0.86950300  0.33123900  1
