# generated using pymatgen
data_SrNb2H11
_symmetry_space_group_name_H-M   'P 1'
_cell_length_a   3.36313400
_cell_length_b   4.58669608
_cell_length_c   6.89534959
_cell_angle_alpha   86.14910089
_cell_angle_beta   90.19873480
_cell_angle_gamma   90.01103020
_symmetry_Int_Tables_number   1
_chemical_formula_structural   SrNb2H11
_chemical_formula_sum   'Sr1 Nb2 H11'
_cell_volume   106.12462139
_cell_formula_units_Z   1
loop_
 _symmetry_equiv_pos_site_id
 _symmetry_equiv_pos_as_xyz
  1  'x, y, z'
loop_
 _atom_site_type_symbol
 _atom_site_label
 _atom_site_symmetry_multiplicity
 _atom_site_fract_x
 _atom_site_fract_y
 _atom_site_fract_z
 _atom_site_occupancy
  H  H0  1  0.08365700  0.78229800  0.27498200  1
  H  H1  1  0.90765900  0.84908600  0.22158400  1
  H  H2  1  0.88380600  0.95429000  0.96223900  1
  H  H3  1  0.10104700  0.94963500  0.96626600  1
  H  H4  1  0.20436300  0.01452400  0.10019500  1
  Nb  Nb5  1  0.07470900  0.13963200  0.86426500  1
  H  H6  1  0.70809800  0.01761300  0.09946500  1
  Nb  Nb7  1  0.44309900  0.50554400  0.12676800  1
  H  H8  1  0.88343800  0.44486500  0.24632200  1
  H  H9  1  0.37747700  0.78235500  0.77325200  1
  H  H10  1  0.20115800  0.26795100  0.60872200  1
  H  H11  1  0.33794500  0.16296700  0.33877200  1
  H  H12  1  0.57553100  0.39573800  0.86519900  1
  Sr  Sr13  1  0.78802700  0.95031500  0.57902500  1
