# generated using pymatgen
data_Sr2NbH12
_symmetry_space_group_name_H-M   'P 1'
_cell_length_a   3.68827400
_cell_length_b   6.14244067
_cell_length_c   6.93919160
_cell_angle_alpha   84.03786966
_cell_angle_beta   76.61445538
_cell_angle_gamma   89.95774483
_symmetry_Int_Tables_number   1
_chemical_formula_structural   Sr2NbH12
_chemical_formula_sum   'Sr2 Nb1 H12'
_cell_volume   152.06535374
_cell_formula_units_Z   1
loop_
 _symmetry_equiv_pos_site_id
 _symmetry_equiv_pos_as_xyz
  1  'x, y, z'
loop_
 _atom_site_type_symbol
 _atom_site_label
 _atom_site_symmetry_multiplicity
 _atom_site_fract_x
 _atom_site_fract_y
 _atom_site_fract_z
 _atom_site_occupancy
  H  H0  1  0.11619400  0.42248400  0.96223900  1
  H  H1  1  0.89895300  0.42713800  0.96626600  1
  H  H2  1  0.91634300  0.59447600  0.27498200  1
  H  H3  1  0.09234100  0.52768800  0.22158400  1
  H  H4  1  0.71711200  0.77616400  0.47245700  1
  H  H5  1  0.40819000  0.28824800  0.23546500  1
  Sr  Sr6  1  0.60958600  0.91007600  0.72095800  1
  H  H7  1  0.22967100  0.00891500  0.58399500  1
  H  H8  1  0.10260400  0.81110700  0.84284500  1
  H  H9  1  0.62252300  0.59441800  0.77325200  1
  H  H10  1  0.51928600  0.82669400  0.00705700  1
  H  H11  1  0.75160900  0.16158600  0.51750200  1
  H  H12  1  0.55198600  0.18105800  0.85273100  1
  Nb  Nb13  1  0.94118100  0.04320100  0.16283200  1
  Sr  Sr14  1  0.21197300  0.42645900  0.57902500  1
