# generated using pymatgen
data_Sr(Nb2H7)2
_symmetry_space_group_name_H-M   'P 1'
_cell_length_a   4.09405900
_cell_length_b   5.77579584
_cell_length_c   6.56364858
_cell_angle_alpha   88.14879793
_cell_angle_beta   84.25352890
_cell_angle_gamma   88.89359554
_symmetry_Int_Tables_number   1
_chemical_formula_structural   Sr(Nb2H7)2
_chemical_formula_sum   'Sr1 Nb4 H14'
_cell_volume   154.32625507
_cell_formula_units_Z   1
loop_
 _symmetry_equiv_pos_site_id
 _symmetry_equiv_pos_as_xyz
  1  'x, y, z'
loop_
 _atom_site_type_symbol
 _atom_site_label
 _atom_site_symmetry_multiplicity
 _atom_site_fract_x
 _atom_site_fract_y
 _atom_site_fract_z
 _atom_site_occupancy
  Nb  Nb0  1  0.06482300  0.29457800  0.20109900  1
  H  H1  1  0.41929800  0.17846700  0.16716600  1
  H  H2  1  0.96520200  0.26103400  0.89362000  1
  H  H3  1  0.14296900  0.34001700  0.89797800  1
  H  H4  1  0.76327500  0.18260900  0.01696800  1
  H  H5  1  0.48281200  0.26871900  0.76302000  1
  H  H6  1  0.73789500  0.48340400  0.26438700  1
  H  H7  1  0.14411700  0.12734400  0.46029700  1
  H  H8  1  0.11349300  0.90250700  0.49637000  1
  Nb  Nb9  1  0.55460200  0.19795800  0.47335600  1
  H  H10  1  0.78403700  0.51821800  0.61830400  1
  H  H11  1  0.63618400  0.71853500  0.57884200  1
  H  H12  1  0.26264900  0.47418100  0.48978800  1
  Nb  Nb13  1  0.15913100  0.60469900  0.59492400  1
  H  H14  1  0.25753400  0.64145500  0.32982700  1
  H  H15  1  0.31632200  0.70614900  0.06174800  1
  Nb  Nb16  1  0.43579700  0.85984700  0.82681200  1
  H  H17  1  0.97188800  0.69906200  0.84427000  1
  Sr  Sr18  1  0.71941700  0.92895000  0.25183500  1
