# generated using pymatgen
data_SrNbH6
_symmetry_space_group_name_H-M   'P 1'
_cell_length_a   3.45832400
_cell_length_b   3.68411275
_cell_length_c   13.72318260
_cell_angle_alpha   87.27353187
_cell_angle_beta   87.35747197
_cell_angle_gamma   63.71660456
_symmetry_Int_Tables_number   1
_chemical_formula_structural   SrNbH6
_chemical_formula_sum   'Sr1 Nb1 H6'
_cell_volume   156.53001105
_cell_formula_units_Z   1
loop_
 _symmetry_equiv_pos_site_id
 _symmetry_equiv_pos_as_xyz
  1  'x, y, z'
loop_
 _atom_site_type_symbol
 _atom_site_label
 _atom_site_symmetry_multiplicity
 _atom_site_fract_x
 _atom_site_fract_y
 _atom_site_fract_z
 _atom_site_occupancy
  H  H0  1  0.04279600  0.18535500  0.73877600  1
  Sr  Sr1  1  0.25765200  0.34673600  0.63959000  1
  H  H2  1  0.43632700  0.03662300  0.45426800  1
  H  H3  1  0.12665100  0.11519900  0.35012700  1
  H  H4  1  0.66879100  0.66043500  0.54932300  1
  H  H5  1  0.02536700  0.23877700  0.19136500  1
  Nb  Nb6  1  0.79805600  0.00255600  0.07351600  1
  H  H7  1  0.21071200  0.27901700  0.91342100  1
