# generated using pymatgen
data_Sr2NbH16
_symmetry_space_group_name_H-M   'P 1'
_cell_length_a   3.72237200
_cell_length_b   5.94052351
_cell_length_c   8.19074332
_cell_angle_alpha   84.89882505
_cell_angle_beta   78.70524000
_cell_angle_gamma   83.01483521
_symmetry_Int_Tables_number   1
_chemical_formula_structural   Sr2NbH16
_chemical_formula_sum   'Sr2 Nb1 H16'
_cell_volume   175.89974666
_cell_formula_units_Z   1
loop_
 _symmetry_equiv_pos_site_id
 _symmetry_equiv_pos_as_xyz
  1  'x, y, z'
loop_
 _atom_site_type_symbol
 _atom_site_label
 _atom_site_symmetry_multiplicity
 _atom_site_fract_x
 _atom_site_fract_y
 _atom_site_fract_z
 _atom_site_occupancy
  H  H0  1  0.34412500  0.62293400  0.29513700  1
  H  H1  1  0.44152400  0.49930200  0.29610000  1
  H  H2  1  0.26648200  0.61219000  0.87051800  1
  H  H3  1  0.18106600  0.48585400  0.85399100  1
  H  H4  1  0.06796900  0.25866800  0.86629800  1
  H  H5  1  0.41335700  0.27668500  0.63964800  1
  H  H6  1  0.75899400  0.28082600  0.68778100  1
  H  H7  1  0.37761800  0.22135800  0.02490400  1
  H  H8  1  0.30166200  0.34287400  0.07029500  1
  H  H9  1  0.63786600  0.13098800  0.88326800  1
  H  H10  1  0.17082200  0.97502400  0.77942700  1
  H  H11  1  0.23027900  0.11378800  0.46634100  1
  H  H12  1  0.83341100  0.26122200  0.42438100  1
  Nb  Nb13  1  0.10245800  0.11432500  0.26441300  1
  H  H14  1  0.16565300  0.89033600  0.11835500  1
  H  H15  1  0.61944100  0.03764900  0.23888100  1
  H  H16  1  0.92061800  0.86848600  0.53611900  1
  Sr  Sr17  1  0.45339900  0.72531600  0.55560200  1
  Sr  Sr18  1  0.72224200  0.73271900  0.01260900  1
