# generated using pymatgen
data_SrNbH12
_symmetry_space_group_name_H-M   'P 1'
_cell_length_a   2.98292000
_cell_length_b   5.20384624
_cell_length_c   7.37733347
_cell_angle_alpha   84.42804212
_cell_angle_beta   79.50377748
_cell_angle_gamma   85.77389364
_symmetry_Int_Tables_number   1
_chemical_formula_structural   SrNbH12
_chemical_formula_sum   'Sr1 Nb1 H12'
_cell_volume   111.88392223
_cell_formula_units_Z   1
loop_
 _symmetry_equiv_pos_site_id
 _symmetry_equiv_pos_as_xyz
  1  'x, y, z'
loop_
 _atom_site_type_symbol
 _atom_site_label
 _atom_site_symmetry_multiplicity
 _atom_site_fract_x
 _atom_site_fract_y
 _atom_site_fract_z
 _atom_site_occupancy
  H  H0  1  0.89051800  0.67306600  0.25756800  1
  H  H1  1  0.99601900  0.73556000  0.32503700  1
  H  H2  1  0.11242100  0.53495400  0.98027300  1
  H  H3  1  0.95342200  0.46331200  0.05138600  1
  Sr  Sr4  1  0.94118100  0.18573500  0.16283200  1
  H  H5  1  0.75160900  0.30412000  0.51750200  1
  H  H6  1  0.58162200  0.41135400  0.57099400  1
  H  H7  1  0.39877200  0.49376000  0.51342400  1
  H  H8  1  0.22967100  0.15144900  0.58399500  1
  H  H9  1  0.07065700  0.94571000  0.55470800  1
  H  H10  1  0.64078600  0.76594700  0.72559200  1
  H  H11  1  0.55477200  0.71646900  0.81187700  1
  Nb  Nb12  1  0.60958600  0.05261000  0.72095800  1
  H  H13  1  0.47022600  0.93709800  0.07637400  1
