# generated using pymatgen
data_Sr2NbH20
_symmetry_space_group_name_H-M   'P 1'
_cell_length_a   4.99050300
_cell_length_b   6.73045211
_cell_length_c   6.77497216
_cell_angle_alpha   70.85396943
_cell_angle_beta   76.08760496
_cell_angle_gamma   69.86245826
_symmetry_Int_Tables_number   1
_chemical_formula_structural   Sr2NbH20
_chemical_formula_sum   'Sr2 Nb1 H20'
_cell_volume   199.73413486
_cell_formula_units_Z   1
loop_
 _symmetry_equiv_pos_site_id
 _symmetry_equiv_pos_as_xyz
  1  'x, y, z'
loop_
 _atom_site_type_symbol
 _atom_site_label
 _atom_site_symmetry_multiplicity
 _atom_site_fract_x
 _atom_site_fract_y
 _atom_site_fract_z
 _atom_site_occupancy
  H  H0  1  0.64937300  0.70113200  0.22277800  1
  H  H1  1  0.73964800  0.59723700  0.29219700  1
  H  H2  1  0.60748100  0.83880900  0.90067700  1
  H  H3  1  0.70085400  0.82210000  0.79646500  1
  H  H4  1  0.54432800  0.72455800  0.58002800  1
  H  H5  1  0.38263100  0.78277500  0.57483000  1
  H  H6  1  0.96630800  0.58807700  0.57700800  1
  H  H7  1  0.13950000  0.52173500  0.84332900  1
  H  H8  1  0.06412200  0.54253700  0.95943700  1
  Nb  Nb9  1  0.40399100  0.30119000  0.05775300  1
  H  H10  1  0.44506800  0.03028600  0.24329500  1
  H  H11  1  0.74845400  0.11066700  0.98782900  1
  H  H12  1  0.67001400  0.48080100  0.88592900  1
  H  H13  1  0.51696400  0.33993000  0.77318400  1
  H  H14  1  0.61788600  0.25424600  0.26298600  1
  H  H15  1  0.06563400  0.28392100  0.23698000  1
  H  H16  1  0.24149900  0.13650300  0.97575400  1
  H  H17  1  0.27566700  0.52891600  0.18882600  1
  H  H18  1  0.18148300  0.85596900  0.88146600  1
  H  H19  1  0.04525700  0.90582000  0.82697800  1
  H  H20  1  0.87275200  0.06154400  0.56520600  1
  Sr  Sr21  1  0.00450000  0.90051000  0.28149300  1
  Sr  Sr22  1  0.23840300  0.21860600  0.58991300  1
