# generated using pymatgen
data_Sr2NbH16
_symmetry_space_group_name_H-M   'P 1'
_cell_length_a   4.78750700
_cell_length_b   5.96893279
_cell_length_c   6.93633298
_cell_angle_alpha   68.29079334
_cell_angle_beta   75.31944077
_cell_angle_gamma   76.35212138
_symmetry_Int_Tables_number   1
_chemical_formula_structural   Sr2NbH16
_chemical_formula_sum   'Sr2 Nb1 H16'
_cell_volume   175.89971661
_cell_formula_units_Z   1
loop_
 _symmetry_equiv_pos_site_id
 _symmetry_equiv_pos_as_xyz
  1  'x, y, z'
loop_
 _atom_site_type_symbol
 _atom_site_label
 _atom_site_symmetry_multiplicity
 _atom_site_fract_x
 _atom_site_fract_y
 _atom_site_fract_z
 _atom_site_occupancy
  H  H0  1  0.05723500  0.04449400  0.67026700  1
  H  H1  1  0.99455700  0.95562000  0.58899300  1
  H  H2  1  0.01695600  0.81322700  0.49717100  1
  H  H3  1  0.05821100  0.80679600  0.25552000  1
  H  H4  1  0.26311200  0.69173500  0.12948100  1
  H  H5  1  0.07923900  0.65387800  0.01507400  1
  H  H6  1  0.02941400  0.51592200  0.43187400  1
  H  H7  1  0.99866200  0.37672300  0.37573000  1
  Nb  Nb8  1  0.69734700  0.24991300  0.51075600  1
  H  H9  1  0.40605700  0.33567700  0.40281000  1
  H  H10  1  0.64106300  0.93598000  0.58523500  1
  H  H11  1  0.09283100  0.04822300  0.98382700  1
  H  H12  1  0.39720000  0.17121000  0.82183500  1
  H  H13  1  0.89813300  0.14723600  0.19383400  1
  H  H14  1  0.75480700  0.20120300  0.81930400  1
  Sr  Sr15  1  0.97118100  0.50550800  0.73893700  1
  H  H16  1  0.69115100  0.55154000  0.19964500  1
  H  H17  1  0.47032400  0.55123900  0.62684800  1
  Sr  Sr18  1  0.44535000  0.99765000  0.26320800  1
