# generated using pymatgen
data_SrNbH19
_symmetry_space_group_name_H-M   'P 1'
_cell_length_a   3.25485800
_cell_length_b   6.03436949
_cell_length_c   8.46310599
_cell_angle_alpha   70.28101678
_cell_angle_beta   79.42232036
_cell_angle_gamma   89.30692132
_symmetry_Int_Tables_number   1
_chemical_formula_structural   SrNbH19
_chemical_formula_sum   'Sr1 Nb1 H19'
_cell_volume   153.59413464
_cell_formula_units_Z   1
loop_
 _symmetry_equiv_pos_site_id
 _symmetry_equiv_pos_as_xyz
  1  'x, y, z'
loop_
 _atom_site_type_symbol
 _atom_site_label
 _atom_site_symmetry_multiplicity
 _atom_site_fract_x
 _atom_site_fract_y
 _atom_site_fract_z
 _atom_site_occupancy
  H  H0  1  0.27835700  0.53626900  0.82425900  1
  H  H1  1  0.32148000  0.42150900  0.81367000  1
  H  H2  1  0.58769200  0.46868600  0.06381000  1
  H  H3  1  0.52700000  0.39792500  0.15508800  1
  H  H4  1  0.53554300  0.84211700  0.17709300  1
  H  H5  1  0.51811000  0.71231000  0.22279300  1
  H  H6  1  0.03988700  0.14391900  0.18234800  1
  H  H7  1  0.04241000  0.08415600  0.11932300  1
  H  H8  1  0.71073100  0.10087000  0.90088100  1
  H  H9  1  0.60759300  0.13866800  0.97167300  1
  H  H10  1  0.13736500  0.81176300  0.93990800  1
  H  H11  1  0.09369200  0.70478300  0.01680900  1
  Sr  Sr12  1  0.35224300  0.20371000  0.53353400  1
  H  H13  1  0.21366800  0.05544700  0.74897200  1
  H  H14  1  0.41647500  0.07956500  0.36827000  1
  H  H15  1  0.87227200  0.03049000  0.58667600  1
  H  H16  1  0.41554000  0.52124200  0.48196700  1
  H  H17  1  0.36374200  0.87788800  0.61235200  1
  H  H18  1  0.86001000  0.31489800  0.62241100  1
  H  H19  1  0.96629200  0.34300300  0.39129700  1
  Nb  Nb20  1  0.92024200  0.76225900  0.45359200  1
