# generated using pymatgen
data_Sr2NbH12
_symmetry_space_group_name_H-M   'P 1'
_cell_length_a   4.29220900
_cell_length_b   4.87471769
_cell_length_c   7.30786365
_cell_angle_alpha   84.11262994
_cell_angle_beta   88.82112119
_cell_angle_gamma   90.04774338
_symmetry_Int_Tables_number   1
_chemical_formula_structural   Sr2NbH12
_chemical_formula_sum   'Sr2 Nb1 H12'
_cell_volume   152.06531276
_cell_formula_units_Z   1
loop_
 _symmetry_equiv_pos_site_id
 _symmetry_equiv_pos_as_xyz
  1  'x, y, z'
loop_
 _atom_site_type_symbol
 _atom_site_label
 _atom_site_symmetry_multiplicity
 _atom_site_fract_x
 _atom_site_fract_y
 _atom_site_fract_z
 _atom_site_occupancy
  Nb  Nb0  1  0.71021300  0.13752500  0.40460100  1
  H  H1  1  0.58636700  0.02703200  0.55001700  1
  H  H2  1  0.02650800  0.10814200  0.41829100  1
  H  H3  1  0.44742700  0.09458400  0.27467200  1
  H  H4  1  0.04323900  0.68510400  0.98500400  1
  H  H5  1  0.04822300  0.47499800  0.98382700  1
  H  H6  1  0.65619300  0.69959500  0.01128900  1
  H  H7  1  0.65387800  0.48858900  0.01507400  1
  H  H8  1  0.05358800  0.71939600  0.67218300  1
  H  H9  1  0.04449400  0.51059300  0.67026700  1
  H  H10  1  0.51592200  0.53841500  0.43187400  1
  H  H11  1  0.81322700  0.55087200  0.49717100  1
  H  H12  1  0.80679600  0.50961700  0.25552000  1
  Sr  Sr13  1  0.23977200  0.60402500  0.24577300  1
  Sr  Sr14  1  0.45324400  0.58977500  0.75467100  1
