# generated using pymatgen
data_SrNbH13
_symmetry_space_group_name_H-M   'P 1'
_cell_length_a   3.89407200
_cell_length_b   5.52710059
_cell_length_c   5.80295464
_cell_angle_alpha   70.69498681
_cell_angle_beta   88.78790135
_cell_angle_gamma   89.10150250
_symmetry_Int_Tables_number   1
_chemical_formula_structural   SrNbH13
_chemical_formula_sum   'Sr1 Nb1 H13'
_cell_volume   117.84252088
_cell_formula_units_Z   1
loop_
 _symmetry_equiv_pos_site_id
 _symmetry_equiv_pos_as_xyz
  1  'x, y, z'
loop_
 _atom_site_type_symbol
 _atom_site_label
 _atom_site_symmetry_multiplicity
 _atom_site_fract_x
 _atom_site_fract_y
 _atom_site_fract_z
 _atom_site_occupancy
  H  H0  1  0.76390400  0.87983500  0.62346500  1
  H  H1  1  0.89828800  0.92838200  0.51644900  1
  H  H2  1  0.90495200  0.66341700  0.93623600  1
  H  H3  1  0.09670900  0.66330000  0.97556600  1
  H  H4  1  0.52607500  0.50886100  0.95736000  1
  H  H5  1  0.24438500  0.09585500  0.68744100  1
  H  H6  1  0.34057500  0.96529200  0.78163400  1
  H  H7  1  0.61851300  0.92040300  0.00909800  1
  Sr  Sr8  1  0.34717900  0.19249900  0.99742100  1
  H  H9  1  0.75052400  0.25776500  0.80749000  1
  H  H10  1  0.75301400  0.17171300  0.17248600  1
  H  H11  1  0.25831400  0.28572200  0.28568000  1
  H  H12  1  0.25202900  0.45222200  0.68544700  1
  H  H13  1  0.23196300  0.87559700  0.27273600  1
  Nb  Nb14  1  0.74837700  0.54765900  0.37391400  1
