# generated using pymatgen
data_SrNbH14
_symmetry_space_group_name_H-M   'P 1'
_cell_length_a   4.16301600
_cell_length_b   5.72484427
_cell_length_c   5.87911146
_cell_angle_alpha   73.09587738
_cell_angle_beta   74.95406805
_cell_angle_gamma   69.77018449
_symmetry_Int_Tables_number   1
_chemical_formula_structural   SrNbH14
_chemical_formula_sum   'Sr1 Nb1 H14'
_cell_volume   123.80113097
_cell_formula_units_Z   1
loop_
 _symmetry_equiv_pos_site_id
 _symmetry_equiv_pos_as_xyz
  1  'x, y, z'
loop_
 _atom_site_type_symbol
 _atom_site_label
 _atom_site_symmetry_multiplicity
 _atom_site_fract_x
 _atom_site_fract_y
 _atom_site_fract_z
 _atom_site_occupancy
  H  H0  1  0.65013800  0.82855400  0.07385800  1
  H  H1  1  0.75735200  0.69173500  0.09085800  1
  H  H2  1  0.28033300  0.00765200  0.94340500  1
  H  H3  1  0.14719200  0.91383700  0.92642300  1
  H  H4  1  0.43152100  0.35112400  0.96131400  1
  H  H5  1  0.63835700  0.33446100  0.88380400  1
  H  H6  1  0.39237300  0.14723600  0.15521100  1
  H  H7  1  0.96456400  0.55123900  0.58822500  1
  H  H8  1  0.72800400  0.73178200  0.72366100  1
  H  H9  1  0.13530300  0.93598000  0.54661200  1
  H  H10  1  0.48879800  0.95562000  0.55036900  1
  Nb  Nb11  1  0.19158700  0.24991300  0.47213300  1
  H  H12  1  0.90029700  0.33567700  0.36418700  1
  H  H13  1  0.49290200  0.37672300  0.33710700  1
  H  H14  1  0.18539100  0.55154000  0.16102200  1
  Sr  Sr15  1  0.93959000  0.99765000  0.22458500  1
