# generated using pymatgen
data_Sr3(NbH8)2
_symmetry_space_group_name_H-M   'P 1'
_cell_length_a   5.44140300
_cell_length_b   6.38083877
_cell_length_c   7.16039554
_cell_angle_alpha   70.88897456
_cell_angle_beta   71.40503869
_cell_angle_gamma   64.81209665
_symmetry_Int_Tables_number   1
_chemical_formula_structural   Sr3(NbH8)2
_chemical_formula_sum   'Sr3 Nb2 H16'
_cell_volume   207.83672889
_cell_formula_units_Z   1
loop_
 _symmetry_equiv_pos_site_id
 _symmetry_equiv_pos_as_xyz
  1  'x, y, z'
loop_
 _atom_site_type_symbol
 _atom_site_label
 _atom_site_symmetry_multiplicity
 _atom_site_fract_x
 _atom_site_fract_y
 _atom_site_fract_z
 _atom_site_occupancy
  Sr  Sr0  1  0.58865900  0.35787200  0.32764700  1
  H  H1  1  0.59235200  0.64955300  0.19143100  1
  H  H2  1  0.83744000  0.35883700  0.08831000  1
  H  H3  1  0.48895300  0.54017500  0.50869200  1
  H  H4  1  0.90761800  0.38078300  0.34348600  1
  H  H5  1  0.22943800  0.58087600  0.34209700  1
  H  H6  1  0.43434000  0.32950000  0.14046200  1
  H  H7  1  0.73470700  0.15338300  0.55819400  1
  H  H8  1  0.78836500  0.04800800  0.27283400  1
  Sr  Sr9  1  0.47263000  0.00193000  0.74976900  1
  H  H10  1  0.46595200  0.71041000  0.88173600  1
  H  H11  1  0.22245200  0.00005500  0.98876700  1
  H  H12  1  0.57707100  0.82136100  0.56637100  1
  H  H13  1  0.15504700  0.97774300  0.73201400  1
  H  H14  1  0.83096000  0.77890400  0.73787100  1
  H  H15  1  0.62426100  0.03154900  0.93792700  1
  H  H16  1  0.32557600  0.20803100  0.51972700  1
  H  H17  1  0.27153200  0.31181100  0.80501900  1
  Sr  Sr18  1  0.79786500  0.39132800  0.74495300  1
  Nb  Nb19  1  0.26363200  0.96827800  0.33229500  1
  Nb  Nb20  1  0.02991200  0.68027300  0.03933000  1
