# generated using pymatgen
data_SrNbH15
_symmetry_space_group_name_H-M   'P 1'
_cell_length_a   5.02476600
_cell_length_b   5.24399531
_cell_length_c   5.65982040
_cell_angle_alpha   73.22753326
_cell_angle_beta   71.55423446
_cell_angle_gamma   69.39621758
_symmetry_Int_Tables_number   1
_chemical_formula_structural   SrNbH15
_chemical_formula_sum   'Sr1 Nb1 H15'
_cell_volume   129.75971269
_cell_formula_units_Z   1
loop_
 _symmetry_equiv_pos_site_id
 _symmetry_equiv_pos_as_xyz
  1  'x, y, z'
loop_
 _atom_site_type_symbol
 _atom_site_label
 _atom_site_symmetry_multiplicity
 _atom_site_fract_x
 _atom_site_fract_y
 _atom_site_fract_z
 _atom_site_occupancy
  H  H0  1  0.77382500  0.30325600  0.21309200  1
  H  H1  1  0.69223900  0.41645500  0.12059700  1
  H  H2  1  0.49552800  0.55154000  0.19964500  1
  H  H3  1  0.84427600  0.90342100  0.49258300  1
  H  H4  1  0.69034700  0.02153600  0.51662900  1
  Nb  Nb5  1  0.50172300  0.24991300  0.51075600  1
  H  H6  1  0.44544000  0.93598000  0.58523500  1
  H  H7  1  0.21043300  0.33567700  0.40281000  1
  H  H8  1  0.27470000  0.55123900  0.62684800  1
  H  H9  1  0.71905100  0.47899700  0.66860700  1
  H  H10  1  0.88068400  0.36991100  0.65848400  1
  H  H11  1  0.67967600  0.86618500  0.93081800  1
  H  H12  1  0.83948000  0.86227900  0.97179300  1
  H  H13  1  0.06748900  0.69173500  0.12948100  1
  H  H14  1  0.55918400  0.20120300  0.81930400  1
  H  H15  1  0.20157700  0.17121000  0.82183500  1
  Sr  Sr16  1  0.24972600  0.99765000  0.26320800  1
