# generated using pymatgen
data_Sr(NbH4)2
_symmetry_space_group_name_H-M   'P 1'
_cell_length_a   4.57273700
_cell_length_b   6.14774342
_cell_length_c   6.59479031
_cell_angle_alpha   81.18822978
_cell_angle_beta   83.79966882
_cell_angle_gamma   74.98736079
_symmetry_Int_Tables_number   1
_chemical_formula_structural   Sr(NbH4)2
_chemical_formula_sum   'Sr2 Nb4 H16'
_cell_volume   176.49767064
_cell_formula_units_Z   2
loop_
 _symmetry_equiv_pos_site_id
 _symmetry_equiv_pos_as_xyz
  1  'x, y, z'
loop_
 _atom_site_type_symbol
 _atom_site_label
 _atom_site_symmetry_multiplicity
 _atom_site_fract_x
 _atom_site_fract_y
 _atom_site_fract_z
 _atom_site_occupancy
  H  H0  1  0.96939200  0.45105300  0.25640500  1
  H  H1  1  0.91496200  0.23034800  0.37915500  1
  Nb  Nb2  1  0.85010400  0.01045700  0.50194700  1
  H  H3  1  0.78241000  0.79346600  0.63701200  1
  H  H4  1  0.37638900  0.24732000  0.90195900  1
  Nb  Nb5  1  0.21629000  0.32748700  0.77202100  1
  H  H6  1  0.09708500  0.38703300  0.01762000  1
  H  H7  1  0.28379400  0.54446100  0.63697000  1
  H  H8  1  0.86242900  0.27500800  0.91051400  1
  H  H9  1  0.96939200  0.95105300  0.25640500  1
  H  H10  1  0.91496200  0.73034800  0.37915500  1
  Nb  Nb11  1  0.85010400  0.51045700  0.50194700  1
  H  H12  1  0.78241000  0.29346600  0.63701200  1
  H  H13  1  0.41257500  0.72495400  0.91041900  1
  Nb  Nb14  1  0.21629000  0.82748700  0.77202100  1
  H  H15  1  0.28379400  0.04446100  0.63697000  1
  Sr  Sr16  1  0.53343000  0.66887200  0.13685800  1
  H  H17  1  0.09708500  0.88703300  0.01762000  1
  Sr  Sr18  1  0.53343000  0.16887200  0.13685800  1
  H  H19  1  0.41031000  0.47777900  0.37936100  1
  H  H20  1  0.41031000  0.97777900  0.37936100  1
  H  H21  1  0.86247700  0.72495200  0.91056000  1
