# generated using pymatgen
data_SrNbH17
_symmetry_space_group_name_H-M   'P 1'
_cell_length_a   4.00719000
_cell_length_b   5.31768094
_cell_length_c   6.89451604
_cell_angle_alpha   101.06121730
_cell_angle_beta   100.17173497
_cell_angle_gamma   91.29343659
_symmetry_Int_Tables_number   1
_chemical_formula_structural   SrNbH17
_chemical_formula_sum   'Sr1 Nb1 H17'
_cell_volume   141.67692125
_cell_formula_units_Z   1
loop_
 _symmetry_equiv_pos_site_id
 _symmetry_equiv_pos_as_xyz
  1  'x, y, z'
loop_
 _atom_site_type_symbol
 _atom_site_label
 _atom_site_symmetry_multiplicity
 _atom_site_fract_x
 _atom_site_fract_y
 _atom_site_fract_z
 _atom_site_occupancy
  H  H0  1  0.95995700  0.82069000  0.40910800  1
  H  H1  1  0.05635700  0.72592600  0.46262900  1
  H  H2  1  0.11102800  0.07801600  0.46263900  1
  H  H3  1  0.10949900  0.41919700  0.45792000  1
  H  H4  1  0.89922800  0.49307000  0.03891000  1
  H  H5  1  0.03926100  0.80158400  0.09144200  1
  H  H6  1  0.68177400  0.75571400  0.18319000  1
  H  H7  1  0.84212700  0.02001600  0.92019800  1
  H  H8  1  0.58717400  0.93737100  0.83152700  1
  H  H9  1  0.69596000  0.41692600  0.62888800  1
  H  H10  1  0.80497300  0.66858400  0.74219700  1
  H  H11  1  0.46747400  0.87716200  0.52276900  1
  H  H12  1  0.50366800  0.77313100  0.44786000  1
  H  H13  1  0.66485400  0.05796000  0.56704800  1
  H  H14  1  0.59479600  0.54211500  0.42931200  1
  Nb  Nb15  1  0.57895500  0.22447700  0.39488000  1
  H  H16  1  0.99303500  0.19211500  0.21845700  1
  H  H17  1  0.28411200  0.63164100  0.76112600  1
  Sr  Sr18  1  0.29502900  0.27171700  0.82674000  1
