# generated using pymatgen
data_SrNbH23
_symmetry_space_group_name_H-M   'P 1'
_cell_length_a   5.09500300
_cell_length_b   5.31737716
_cell_length_c   6.69398352
_cell_angle_alpha   97.49297435
_cell_angle_beta   98.58230518
_cell_angle_gamma   92.47447393
_symmetry_Int_Tables_number   1
_chemical_formula_structural   SrNbH23
_chemical_formula_sum   'Sr1 Nb1 H23'
_cell_volume   177.42855148
_cell_formula_units_Z   1
loop_
 _symmetry_equiv_pos_site_id
 _symmetry_equiv_pos_as_xyz
  1  'x, y, z'
loop_
 _atom_site_type_symbol
 _atom_site_label
 _atom_site_symmetry_multiplicity
 _atom_site_fract_x
 _atom_site_fract_y
 _atom_site_fract_z
 _atom_site_occupancy
  H  H0  1  0.06219600  0.51498300  0.81260800  1
  H  H1  1  0.16063700  0.57041400  0.75658200  1
  H  H2  1  0.28411200  0.14199100  0.76112600  1
  H  H3  1  0.38998900  0.10907900  0.84058800  1
  H  H4  1  0.46747400  0.38751100  0.52276900  1
  H  H5  1  0.50366800  0.28348100  0.44786000  1
  H  H6  1  0.58717400  0.44772100  0.83152700  1
  H  H7  1  0.64123300  0.58036500  0.86988200  1
  H  H8  1  0.38831500  0.80395300  0.57220900  1
  H  H9  1  0.52654400  0.76553900  0.59995500  1
  H  H10  1  0.95995700  0.33103900  0.40910800  1
  H  H11  1  0.05635700  0.23627600  0.46262900  1
  H  H12  1  0.80497300  0.17893400  0.74219700  1
  H  H13  1  0.78580400  0.10935600  0.63771900  1
  H  H14  1  0.07377200  0.93075900  0.95971700  1
  H  H15  1  0.91796700  0.95487800  0.91090400  1
  H  H16  1  0.27376900  0.03108000  0.17148100  1
  H  H17  1  0.63768700  0.90697200  0.02550700  1
  Sr  Sr18  1  0.92846700  0.03616000  0.19518600  1
  H  H19  1  0.10535100  0.90140700  0.40227300  1
  H  H20  1  0.68177400  0.26606300  0.18319000  1
  H  H21  1  0.92926400  0.69514700  0.14599900  1
  H  H22  1  0.03926100  0.31193300  0.09144200  1
  H  H23  1  0.70511800  0.94455100  0.36352400  1
  Nb  Nb24  1  0.41259600  0.60115700  0.19007800  1
