# generated using pymatgen
data_SrNb3H20
_symmetry_space_group_name_H-M   'P 1'
_cell_length_a   4.72095500
_cell_length_b   5.47213422
_cell_length_c   6.75134891
_cell_angle_alpha   91.96730256
_cell_angle_beta   94.99710501
_cell_angle_gamma   91.14739863
_symmetry_Int_Tables_number   1
_chemical_formula_structural   SrNb3H20
_chemical_formula_sum   'Sr1 Nb3 H20'
_cell_volume   173.60058227
_cell_formula_units_Z   1
loop_
 _symmetry_equiv_pos_site_id
 _symmetry_equiv_pos_as_xyz
  1  'x, y, z'
loop_
 _atom_site_type_symbol
 _atom_site_label
 _atom_site_symmetry_multiplicity
 _atom_site_fract_x
 _atom_site_fract_y
 _atom_site_fract_z
 _atom_site_occupancy
  H  H0  1  0.41282600  0.55227900  0.08651500  1
  H  H1  1  0.35876700  0.41963500  0.12487000  1
  H  H2  1  0.71588800  0.85800900  0.01611500  1
  H  H3  1  0.61001100  0.89092100  0.09557600  1
  H  H4  1  0.66740900  0.01317500  0.87675800  1
  H  H5  1  0.89464900  0.09859300  0.65726100  1
  H  H6  1  0.95504600  0.22057200  0.79486500  1
  H  H7  1  0.92622800  0.06924100  0.21470500  1
  H  H8  1  0.08203300  0.04512200  0.16589200  1
  H  H9  1  0.36231300  0.09302800  0.28049500  1
  Nb  Nb10  1  0.07153300  0.96384000  0.45017400  1
  H  H11  1  0.29488200  0.05544900  0.61851200  1
  H  H12  1  0.72623100  0.96892000  0.42647000  1
  H  H13  1  0.96073900  0.68806700  0.34643000  1
  H  H14  1  0.31822600  0.73393700  0.43817900  1
  Nb  Nb15  1  0.37734600  0.25541800  0.83379200  1
  H  H16  1  0.93780400  0.48501700  0.06759600  1
  H  H17  1  0.83936300  0.42958600  0.01157000  1
  H  H18  1  0.65193700  0.50098800  0.83926900  1
  H  H19  1  0.04004300  0.66896100  0.66409700  1
  H  H20  1  0.12682800  0.51608600  0.85877200  1
  Nb  Nb21  1  0.39600600  0.75450800  0.84372900  1
  H  H22  1  0.07073600  0.30485300  0.40098700  1
  Sr  Sr23  1  0.58740400  0.39884300  0.44506600  1
