# generated using pymatgen
data_Sr(NbH4)4
_symmetry_space_group_name_H-M   'P 1'
_cell_length_a   3.35251000
_cell_length_b   6.36358243
_cell_length_c   7.94762229
_cell_angle_alpha   79.69092525
_cell_angle_beta   78.91001232
_cell_angle_gamma   89.83487194
_symmetry_Int_Tables_number   1
_chemical_formula_structural   Sr(NbH4)4
_chemical_formula_sum   'Sr1 Nb4 H16'
_cell_volume   163.61472783
_cell_formula_units_Z   1
loop_
 _symmetry_equiv_pos_site_id
 _symmetry_equiv_pos_as_xyz
  1  'x, y, z'
loop_
 _atom_site_type_symbol
 _atom_site_label
 _atom_site_symmetry_multiplicity
 _atom_site_fract_x
 _atom_site_fract_y
 _atom_site_fract_z
 _atom_site_occupancy
  H  H0  1  0.38339500  0.32883700  0.27764100  1
  H  H1  1  0.84805500  0.34156100  0.10082300  1
  H  H2  1  0.85368500  0.85428500  0.09896800  1
  H  H3  1  0.86661300  0.64474600  0.99505400  1
  Nb  Nb4  1  0.74474400  0.57448900  0.23036000  1
  H  H5  1  0.29798600  0.61149000  0.11613600  1
  H  H6  1  0.37781100  0.80124900  0.27101100  1
  H  H7  1  0.12202600  0.04708000  0.36767500  1
  Nb  Nb8  1  0.53821400  0.00522400  0.47804500  1
  Nb  Nb9  1  0.70702700  0.06526900  0.24080100  1
  Nb  Nb10  1  0.55571900  0.74415100  0.62936900  1
  H  H11  1  0.99569600  0.70538900  0.74808800  1
  H  H12  1  0.01056800  0.97893900  0.64652000  1
  H  H13  1  0.10457700  0.75802100  0.51121100  1
  H  H14  1  0.10742200  0.26093600  0.51453000  1
  H  H15  1  0.91845900  0.48742400  0.61543200  1
  H  H16  1  0.99722700  0.21065400  0.75526400  1
  H  H17  1  0.56029600  0.21597200  0.62936100  1
  H  H18  1  0.45690500  0.51780700  0.47259200  1
  H  H19  1  0.27069600  0.09357500  0.09845400  1
  Sr  Sr20  1  0.43117800  0.43268700  0.86943100  1
