# generated using pymatgen
data_Sr2NbH20
_symmetry_space_group_name_H-M   'P 1'
_cell_length_a   5.25992800
_cell_length_b   5.83802037
_cell_length_c   6.68481419
_cell_angle_alpha   93.30472301
_cell_angle_beta   102.11867927
_cell_angle_gamma   93.74740545
_symmetry_Int_Tables_number   1
_chemical_formula_structural   Sr2NbH20
_chemical_formula_sum   'Sr2 Nb1 H20'
_cell_volume   199.73414537
_cell_formula_units_Z   1
loop_
 _symmetry_equiv_pos_site_id
 _symmetry_equiv_pos_as_xyz
  1  'x, y, z'
loop_
 _atom_site_type_symbol
 _atom_site_label
 _atom_site_symmetry_multiplicity
 _atom_site_fract_x
 _atom_site_fract_y
 _atom_site_fract_z
 _atom_site_occupancy
  H  H0  1  0.27680000  0.21193700  0.10674500  1
  H  H1  1  0.14097500  0.20568600  0.06685700  1
  H  H2  1  0.93343800  0.19498100  0.27153200  1
  H  H3  1  0.08886000  0.80615900  0.91210500  1
  H  H4  1  0.22581700  0.94836600  0.87820000  1
  H  H5  1  0.88641200  0.91169000  0.83744000  1
  H  H6  1  0.86446600  0.65651400  0.90761800  1
  H  H7  1  0.91574900  0.85953800  0.43434000  1
  H  H8  1  0.08886000  0.80615900  0.41210500  1
  H  H9  1  0.22581700  0.94836600  0.37820000  1
  Nb  Nb10  1  0.88737700  0.67235300  0.58865900  1
  H  H11  1  0.09202300  0.65912000  0.66353000  1
  H  H12  1  0.70507400  0.49130800  0.48895300  1
  H  H13  1  0.27680000  0.21193700  0.60674500  1
  H  H14  1  0.14097500  0.20568600  0.56685700  1
  H  H15  1  0.42388800  0.43362900  0.57707100  1
  H  H16  1  0.46634500  0.26212900  0.83096000  1
  H  H17  1  0.59569600  0.80856900  0.59235200  1
  H  H18  1  0.53483900  0.11826400  0.46595200  1
  H  H19  1  0.09202300  0.65912000  0.16353000  1
  Sr  Sr20  1  0.56497600  0.96067000  0.02991200  1
  H  H21  1  0.66437400  0.65790300  0.22943800  1
  Sr  Sr22  1  0.85392100  0.25504700  0.79786500  1
