# generated using pymatgen
data_Sr(NbH9)2
_symmetry_space_group_name_H-M   'P 1'
_cell_length_a   5.09281800
_cell_length_b   5.16072715
_cell_length_c   6.00803642
_cell_angle_alpha   83.47681209
_cell_angle_beta   89.61769702
_cell_angle_gamma   70.53363542
_symmetry_Int_Tables_number   1
_chemical_formula_structural   Sr(NbH9)2
_chemical_formula_sum   'Sr1 Nb2 H18'
_cell_volume   147.83482514
_cell_formula_units_Z   1
loop_
 _symmetry_equiv_pos_site_id
 _symmetry_equiv_pos_as_xyz
  1  'x, y, z'
loop_
 _atom_site_type_symbol
 _atom_site_label
 _atom_site_symmetry_multiplicity
 _atom_site_fract_x
 _atom_site_fract_y
 _atom_site_fract_z
 _atom_site_occupancy
  H  H0  1  0.64157200  0.22603400  0.91288200  1
  H  H1  1  0.55181800  0.18814800  0.81424400  1
  H  H2  1  0.44040900  0.19894900  0.26022000  1
  Nb  Nb3  1  0.53237700  0.97974700  0.30741700  1
  Nb  Nb4  1  0.11934000  0.42731500  0.24097600  1
  H  H5  1  0.24380600  0.49211900  0.03894800  1
  H  H6  1  0.86079600  0.63685100  0.01679700  1
  H  H7  1  0.65837900  0.76295000  0.06905300  1
  H  H8  1  0.82659600  0.05960600  0.39522800  1
  H  H9  1  0.84522900  0.99577100  0.40913500  1
  H  H10  1  0.89666600  0.13510600  0.31355000  1
  H  H11  1  0.78340100  0.40587200  0.20276200  1
  H  H12  1  0.94956800  0.66369800  0.41132000  1
  H  H13  1  0.04075400  0.22007200  0.02941700  1
  H  H14  1  0.38435400  0.51345800  0.49353800  1
  H  H15  1  0.29073800  0.76307800  0.40119300  1
  H  H16  1  0.08951200  0.03151200  0.71677700  1
  H  H17  1  0.22080000  0.20273500  0.51055100  1
  H  H18  1  0.21040800  0.66442000  0.72931400  1
  H  H19  1  0.47783500  0.88325900  0.63957300  1
  Sr  Sr20  1  0.87034300  0.46977100  0.69218300  1
