# generated using pymatgen
data_Sr2NbH15
_symmetry_space_group_name_H-M   'P 1'
_cell_length_a   5.47980200
_cell_length_b   5.76916014
_cell_length_c   6.27146759
_cell_angle_alpha   71.06701716
_cell_angle_beta   66.61165765
_cell_angle_gamma   74.52572261
_symmetry_Int_Tables_number   1
_chemical_formula_structural   Sr2NbH15
_chemical_formula_sum   'Sr2 Nb1 H15'
_cell_volume   169.94115074
_cell_formula_units_Z   1
loop_
 _symmetry_equiv_pos_site_id
 _symmetry_equiv_pos_as_xyz
  1  'x, y, z'
loop_
 _atom_site_type_symbol
 _atom_site_label
 _atom_site_symmetry_multiplicity
 _atom_site_fract_x
 _atom_site_fract_y
 _atom_site_fract_z
 _atom_site_occupancy
  H  H0  1  0.99189600  0.12255700  0.60586700  1
  H  H1  1  0.07319500  0.00745900  0.56251800  1
  H  H2  1  0.96456400  0.85901900  0.62684800  1
  H  H3  1  0.48222100  0.54378400  0.94090600  1
  Sr  Sr4  1  0.46542200  0.81328800  0.73893700  1
  H  H5  1  0.76222700  0.51408600  0.13685200  1
  H  H6  1  0.63976100  0.60026400  0.19505300  1
  H  H7  1  0.49290200  0.68450200  0.37573000  1
  Nb  Nb8  1  0.75684800  0.35340400  0.02748300  1
  H  H9  1  0.91994400  0.32605700  0.25000100  1
  H  H10  1  0.87096100  0.44371500  0.73150200  1
  H  H11  1  0.09632100  0.55478000  0.95904700  1
  H  H12  1  0.09999400  0.21238500  0.90480000  1
  Sr  Sr13  1  0.47868900  0.36978200  0.58458600  1
  H  H14  1  0.42700500  0.26169700  0.24128700  1
  H  H15  1  0.90029700  0.64345700  0.40281000  1
  H  H16  1  0.18539100  0.85931900  0.19964500  1
  H  H17  1  0.59465800  0.14700000  0.90309600  1
