# generated using pymatgen
data_SrNbH9
_symmetry_space_group_name_H-M   'P 1'
_cell_length_a   3.87339900
_cell_length_b   4.97020890
_cell_length_c   5.05530311
_cell_angle_alpha   84.15103252
_cell_angle_beta   76.17589799
_cell_angle_gamma   89.08346294
_symmetry_Int_Tables_number   1
_chemical_formula_structural   SrNbH9
_chemical_formula_sum   'Sr1 Nb1 H9'
_cell_volume   94.00811777
_cell_formula_units_Z   1
loop_
 _symmetry_equiv_pos_site_id
 _symmetry_equiv_pos_as_xyz
  1  'x, y, z'
loop_
 _atom_site_type_symbol
 _atom_site_label
 _atom_site_symmetry_multiplicity
 _atom_site_fract_x
 _atom_site_fract_y
 _atom_site_fract_z
 _atom_site_occupancy
  H  H0  1  0.11544300  0.28946600  0.79268900  1
  H  H1  1  0.16503200  0.28857300  0.66723800  1
  H  H2  1  0.77106900  0.72303100  0.88253900  1
  Sr  Sr3  1  0.13038100  0.83388600  0.84913800  1
  H  H4  1  0.54473300  0.09832300  0.07596200  1
  H  H5  1  0.14158100  0.08643100  0.17060600  1
  Nb  Nb6  1  0.74082800  0.90179800  0.24344900  1
  H  H7  1  0.75402200  0.24721500  0.26739200  1
  H  H8  1  0.12681300  0.83063500  0.43503300  1
  H  H9  1  0.66648800  0.63032000  0.52813600  1
  H  H10  1  0.70814700  0.00810200  0.60612500  1
