# generated using pymatgen
data_SrNbH14
_symmetry_space_group_name_H-M   'P 1'
_cell_length_a   3.53446800
_cell_length_b   5.73095107
_cell_length_c   6.78309966
_cell_angle_alpha   67.70215425
_cell_angle_beta   77.82795678
_cell_angle_gamma   89.89261567
_symmetry_Int_Tables_number   1
_chemical_formula_structural   SrNbH14
_chemical_formula_sum   'Sr1 Nb1 H14'
_cell_volume   123.80112667
_cell_formula_units_Z   1
loop_
 _symmetry_equiv_pos_site_id
 _symmetry_equiv_pos_as_xyz
  1  'x, y, z'
loop_
 _atom_site_type_symbol
 _atom_site_label
 _atom_site_symmetry_multiplicity
 _atom_site_fract_x
 _atom_site_fract_y
 _atom_site_fract_z
 _atom_site_occupancy
  H  H0  1  0.60343900  0.44348300  0.82520800  1
  H  H1  1  0.57312200  0.56749400  0.73830500  1
  H  H2  1  0.09314900  0.60407900  0.98662700  1
  H  H3  1  0.95050300  0.66329700  0.91831900  1
  H  H4  1  0.10310100  0.17979300  0.74817800  1
  H  H5  1  0.10002400  0.29209400  0.78099100  1
  Nb  Nb6  1  0.29330700  0.98400000  0.27982600  1
  H  H7  1  0.19258700  0.03533500  0.52999500  1
  H  H8  1  0.21798000  0.70740100  0.52950700  1
  H  H9  1  0.72427600  0.86743300  0.16167500  1
  H  H10  1  0.72635300  0.20436900  0.13412200  1
  H  H11  1  0.22313600  0.69579100  0.22931500  1
  H  H12  1  0.23128200  0.32165500  0.22224000  1
  H  H13  1  0.70339000  0.93892900  0.42422000  1
  H  H14  1  0.59878100  0.94112900  0.75199900  1
  Sr  Sr15  1  0.67795000  0.42104600  0.41171000  1
