# generated using pymatgen
data_Sr3(NbH7)2
_symmetry_space_group_name_H-M   'P 1'
_cell_length_a   4.20673200
_cell_length_b   6.06595782
_cell_length_c   8.16197256
_cell_angle_alpha   72.38011766
_cell_angle_beta   76.95031522
_cell_angle_gamma   80.23175127
_symmetry_Int_Tables_number   1
_chemical_formula_structural   Sr3(NbH7)2
_chemical_formula_sum   'Sr3 Nb2 H14'
_cell_volume   192.22372870
_cell_formula_units_Z   1
loop_
 _symmetry_equiv_pos_site_id
 _symmetry_equiv_pos_as_xyz
  1  'x, y, z'
loop_
 _atom_site_type_symbol
 _atom_site_label
 _atom_site_symmetry_multiplicity
 _atom_site_fract_x
 _atom_site_fract_y
 _atom_site_fract_z
 _atom_site_occupancy
  H  H0  1  0.13503000  0.12084600  0.75955000  1
  H  H1  1  0.21571700  0.10916500  0.53052500  1
  Nb  Nb2  1  0.10612500  0.82207400  0.70720400  1
  H  H3  1  0.20795000  0.71609800  0.52764800  1
  H  H4  1  0.13743000  0.47141100  0.75316600  1
  H  H5  1  0.97760000  0.50976300  0.85759600  1
  H  H6  1  0.76300100  0.72760800  0.92051400  1
  H  H7  1  0.95117500  0.31807300  0.06477500  1
  Nb  Nb8  1  0.92062800  0.62093400  0.11527300  1
  H  H9  1  0.83461000  0.73543400  0.29259800  1
  H  H10  1  0.82909300  0.33056000  0.29134900  1
  H  H11  1  0.25996000  0.70318200  0.92246600  1
  H  H12  1  0.66057000  0.65329700  0.71281600  1
  H  H13  1  0.66299700  0.99125500  0.70978300  1
  H  H14  1  0.96613900  0.97303100  0.06582000  1
  Sr  Sr15  1  0.70841400  0.41133400  0.53333100  1
  Sr  Sr16  1  0.33367700  0.03658400  0.28202900  1
  H  H17  1  0.38428700  0.60394600  0.18790700  1
  Sr  Sr18  1  0.54206400  0.22061300  0.91222900  1
