# generated using pymatgen
data_SrNbH21
_symmetry_space_group_name_H-M   'P 1'
_cell_length_a   4.42375100
_cell_length_b   5.54761589
_cell_length_c   6.77411412
_cell_angle_alpha   88.56604142
_cell_angle_beta   84.89415016
_cell_angle_gamma   88.93136180
_symmetry_Int_Tables_number   1
_chemical_formula_structural   SrNbH21
_chemical_formula_sum   'Sr1 Nb1 H21'
_cell_volume   165.51133506
_cell_formula_units_Z   1
loop_
 _symmetry_equiv_pos_site_id
 _symmetry_equiv_pos_as_xyz
  1  'x, y, z'
loop_
 _atom_site_type_symbol
 _atom_site_label
 _atom_site_symmetry_multiplicity
 _atom_site_fract_x
 _atom_site_fract_y
 _atom_site_fract_z
 _atom_site_occupancy
  H  H0  1  0.43314600  0.76998100  0.36989600  1
  H  H1  1  0.46384800  0.88518500  0.29944800  1
  H  H2  1  0.99221300  0.14842100  0.38804100  1
  H  H3  1  0.91102000  0.05769300  0.33001000  1
  H  H4  1  0.78446600  0.50018500  0.24232800  1
  H  H5  1  0.86463100  0.49529200  0.35265400  1
  H  H6  1  0.09032100  0.51089300  0.47940700  1
  H  H7  1  0.27346400  0.67759800  0.89335500  1
  H  H8  1  0.20454100  0.71302700  0.79338000  1
  H  H9  1  0.73592200  0.50186500  0.93812600  1
  H  H10  1  0.01520300  0.42865200  0.97401800  1
  H  H11  1  0.84064800  0.92222100  0.08187300  1
  H  H12  1  0.94288800  0.80486300  0.10206200  1
  H  H13  1  0.08573900  0.10645200  0.08164800  1
  H  H14  1  0.22552700  0.14813700  0.12824500  1
  H  H15  1  0.27945500  0.38243300  0.12014600  1
  H  H16  1  0.35877900  0.25391700  0.12597800  1
  H  H17  1  0.29364500  0.06857700  0.89365100  1
  H  H18  1  0.77826000  0.24257400  0.82963800  1
  Nb  Nb19  1  0.32851400  0.39134900  0.81400100  1
  H  H20  1  0.28550600  0.26083300  0.58312500  1
  H  H21  1  0.61396800  0.52543400  0.63311200  1
  Sr  Sr22  1  0.74457200  0.90388700  0.70626100  1
