# generated using pymatgen
data_Sr(NbH7)3
_symmetry_space_group_name_H-M   'P 1'
_cell_length_a   4.96600200
_cell_length_b   5.58132503
_cell_length_c   6.96916963
_cell_angle_alpha   104.22986286
_cell_angle_beta   105.04041711
_cell_angle_gamma   92.67549556
_symmetry_Int_Tables_number   1
_chemical_formula_structural   Sr(NbH7)3
_chemical_formula_sum   'Sr1 Nb3 H21'
_cell_volume   179.55918994
_cell_formula_units_Z   1
loop_
 _symmetry_equiv_pos_site_id
 _symmetry_equiv_pos_as_xyz
  1  'x, y, z'
loop_
 _atom_site_type_symbol
 _atom_site_label
 _atom_site_symmetry_multiplicity
 _atom_site_fract_x
 _atom_site_fract_y
 _atom_site_fract_z
 _atom_site_occupancy
  H  H0  1  0.70137900  0.82121900  0.81876300  1
  H  H1  1  0.67010400  0.93655100  0.92665400  1
  Nb  Nb2  1  0.32610900  0.76215600  0.79491400  1
  H  H3  1  0.98443500  0.81513100  0.64359000  1
  H  H4  1  0.25277000  0.03230800  0.97932600  1
  H  H5  1  0.87986200  0.27414200  0.92826400  1
  H  H6  1  0.98318100  0.32788300  0.05288300  1
  H  H7  1  0.23286800  0.39205800  0.16372800  1
  H  H8  1  0.96341900  0.18905600  0.64227900  1
  H  H9  1  0.01964500  0.16440900  0.76018200  1
  Nb  Nb10  1  0.24315300  0.34121800  0.90664300  1
  H  H11  1  0.57040100  0.36676700  0.08426200  1
  H  H12  1  0.94888800  0.92139600  0.17837600  1
  H  H13  1  0.11500600  0.92487600  0.18618900  1
  H  H14  1  0.40140500  0.01563100  0.38631900  1
  H  H15  1  0.75335700  0.00797000  0.34379800  1
  Nb  Nb16  1  0.09930500  0.97008300  0.46251300  1
  H  H17  1  0.88396000  0.69499900  0.31824400  1
  H  H18  1  0.11981700  0.26538600  0.40757600  1
  H  H19  1  0.39173900  0.66630200  0.04628600  1
  H  H20  1  0.02429900  0.57903100  0.82689700  1
  H  H21  1  0.33369300  0.72014800  0.52185400  1
  H  H22  1  0.47943800  0.45962900  0.76377400  1
  H  H23  1  0.37947600  0.07991100  0.72910100  1
  Sr  Sr24  1  0.64618500  0.42119500  0.44545900  1
