# generated using pymatgen
data_SrNb4H15
_symmetry_space_group_name_H-M   'P 1'
_cell_length_a   4.86008400
_cell_length_b   5.57981195
_cell_length_c   6.01374856
_cell_angle_alpha   82.22247032
_cell_angle_beta   88.37310964
_cell_angle_gamma   80.05787594
_symmetry_Int_Tables_number   1
_chemical_formula_structural   SrNb4H15
_chemical_formula_sum   'Sr1 Nb4 H15'
_cell_volume   159.15411047
_cell_formula_units_Z   1
loop_
 _symmetry_equiv_pos_site_id
 _symmetry_equiv_pos_as_xyz
  1  'x, y, z'
loop_
 _atom_site_type_symbol
 _atom_site_label
 _atom_site_symmetry_multiplicity
 _atom_site_fract_x
 _atom_site_fract_y
 _atom_site_fract_z
 _atom_site_occupancy
  H  H0  1  0.86733100  0.30407200  0.92673500  1
  H  H1  1  0.81895000  0.37040600  0.88897700  1
  H  H2  1  0.06349800  0.27573300  0.09408300  1
  Nb  Nb3  1  0.88818000  0.07419100  0.33785600  1
  H  H4  1  0.88149900  0.75958900  0.41300300  1
  H  H5  1  0.63417600  0.96607700  0.16994500  1
  Nb  Nb6  1  0.34606600  0.77229500  0.38910700  1
  H  H7  1  0.24204100  0.92011100  0.14996000  1
  Nb  Nb8  1  0.20423800  0.24044300  0.69829400  1
  H  H9  1  0.46509100  0.12867000  0.86490900  1
  H  H10  1  0.09423800  0.32980000  0.42357100  1
  Nb  Nb11  1  0.45155100  0.30250100  0.14489200  1
  H  H12  1  0.37168000  0.44201900  0.88399800  1
  H  H13  1  0.19229900  0.56808100  0.64819000  1
  H  H14  1  0.23928800  0.58165500  0.17055000  1
  H  H15  1  0.25702100  0.90719100  0.69616200  1
  H  H16  1  0.85897300  0.11684200  0.65530700  1
  H  H17  1  0.56306500  0.30793200  0.45564600  1
  H  H18  1  0.65850700  0.56647100  0.20454500  1
  Sr  Sr19  1  0.70108400  0.75772500  0.82718200  1
