# generated using pymatgen
data_SrNbH6
_symmetry_space_group_name_H-M   'P 1'
_cell_length_a   4.07239500
_cell_length_b   6.19222995
_cell_length_c   6.50453595
_cell_angle_alpha   92.97538311
_cell_angle_beta   97.06546890
_cell_angle_gamma   105.13344206
_symmetry_Int_Tables_number   1
_chemical_formula_structural   SrNbH6
_chemical_formula_sum   'Sr1 Nb1 H6'
_cell_volume   156.52998260
_cell_formula_units_Z   1
loop_
 _symmetry_equiv_pos_site_id
 _symmetry_equiv_pos_as_xyz
  1  'x, y, z'
loop_
 _atom_site_type_symbol
 _atom_site_label
 _atom_site_symmetry_multiplicity
 _atom_site_fract_x
 _atom_site_fract_y
 _atom_site_fract_z
 _atom_site_occupancy
  H  H0  1  0.27060500  0.63352900  0.94604800  1
  H  H1  1  0.19387600  0.44066700  0.91959900  1
  H  H2  1  0.52394600  0.41569600  0.93352700  1
  H  H3  1  0.82072200  0.33271200  0.80491000  1
  H  H4  1  0.20327300  0.33386800  0.15356000  1
  Sr  Sr5  1  0.42199600  0.12380200  0.17356100  1
  H  H6  1  0.60445900  0.12634300  0.54083000  1
  Nb  Nb7  1  0.87389200  0.70312500  0.20243900  1
