# generated using pymatgen
data_SrNbH18
_symmetry_space_group_name_H-M   'P 1'
_cell_length_a   4.31597200
_cell_length_b   5.57254471
_cell_length_c   6.82581273
_cell_angle_alpha   69.72849763
_cell_angle_beta   75.33754845
_cell_angle_gamma   77.90604434
_symmetry_Int_Tables_number   1
_chemical_formula_structural   SrNbH18
_chemical_formula_sum   'Sr1 Nb1 H18'
_cell_volume   147.63552967
_cell_formula_units_Z   1
loop_
 _symmetry_equiv_pos_site_id
 _symmetry_equiv_pos_as_xyz
  1  'x, y, z'
loop_
 _atom_site_type_symbol
 _atom_site_label
 _atom_site_symmetry_multiplicity
 _atom_site_fract_x
 _atom_site_fract_y
 _atom_site_fract_z
 _atom_site_occupancy
  H  H0  1  0.70206200  0.74834900  0.80036200  1
  H  H1  1  0.28510600  0.77951600  0.78901300  1
  H  H2  1  0.59773800  0.24861200  0.05162900  1
  H  H3  1  0.43750900  0.32584000  0.98672800  1
  H  H4  1  0.63834600  0.22879400  0.71897100  1
  H  H5  1  0.52543500  0.09910600  0.71860400  1
  H  H6  1  0.62347400  0.50453400  0.68628000  1
  H  H7  1  0.08017500  0.45670800  0.66997600  1
  H  H8  1  0.20800800  0.34994600  0.69996300  1
  H  H9  1  0.07663000  0.18444900  0.47665800  1
  H  H10  1  0.25577900  0.27413800  0.47287300  1
  H  H11  1  0.00185900  0.34388500  0.15165500  1
  H  H12  1  0.00033200  0.46982000  0.03316600  1
  H  H13  1  0.93897800  0.99122800  0.40506900  1
  H  H14  1  0.00878400  0.80558900  0.44699100  1
  H  H15  1  0.03511800  0.04912000  0.24259700  1
  H  H16  1  0.36445300  0.74043700  0.43273500  1
  Nb  Nb17  1  0.60457900  0.85375300  0.50365700  1
  Sr  Sr18  1  0.37380800  0.52010900  0.20497500  1
  H  H19  1  0.82042900  0.73606500  0.23701600  1
