# generated using pymatgen
data_SrNbH22
_symmetry_space_group_name_H-M   'P 1'
_cell_length_a   4.79369800
_cell_length_b   5.69726915
_cell_length_c   6.38698603
_cell_angle_alpha   87.36961535
_cell_angle_beta   89.04656721
_cell_angle_gamma   79.76132612
_symmetry_Int_Tables_number   1
_chemical_formula_structural   SrNbH22
_chemical_formula_sum   'Sr1 Nb1 H22'
_cell_volume   171.46992372
_cell_formula_units_Z   1
loop_
 _symmetry_equiv_pos_site_id
 _symmetry_equiv_pos_as_xyz
  1  'x, y, z'
loop_
 _atom_site_type_symbol
 _atom_site_label
 _atom_site_symmetry_multiplicity
 _atom_site_fract_x
 _atom_site_fract_y
 _atom_site_fract_z
 _atom_site_occupancy
  H  H0  1  0.27840700  0.36912100  0.25830800  1
  H  H1  1  0.23611200  0.28245000  0.33627400  1
  H  H2  1  0.84947700  0.10757900  0.60137500  1
  H  H3  1  0.00784200  0.10935900  0.61598000  1
  H  H4  1  0.31544200  0.85629700  0.31543100  1
  H  H5  1  0.20945000  0.79022200  0.26511900  1
  H  H6  1  0.70916800  0.06873900  0.25571200  1
  H  H7  1  0.81615600  0.06722800  0.32133500  1
  H  H8  1  0.93901800  0.90073400  0.07384900  1
  H  H9  1  0.01434700  0.83419500  0.00984900  1
  H  H10  1  0.74878100  0.61029200  0.32577600  1
  H  H11  1  0.76305400  0.53268900  0.25667300  1
  H  H12  1  0.97557800  0.33998700  0.09073300  1
  H  H13  1  0.95781000  0.39754800  0.00541700  1
  H  H14  1  0.93515800  0.54654200  0.97992300  1
  Nb  Nb15  1  0.82197800  0.31824700  0.91350900  1
  H  H16  1  0.17897300  0.24488500  0.82428000  1
  H  H17  1  0.44892900  0.55365200  0.02362200  1
  H  H18  1  0.48950700  0.67484100  0.06237600  1
  H  H19  1  0.53339400  0.13369100  0.00906300  1
  H  H20  1  0.41452000  0.09485300  0.07464000  1
  Sr  Sr21  1  0.56515100  0.90177600  0.94221900  1
  H  H22  1  0.54617400  0.26145300  0.75397300  1
  H  H23  1  0.72927000  0.49359100  0.60414800  1
