# generated using pymatgen
data_SrNbH13
_symmetry_space_group_name_H-M   'P 1'
_cell_length_a   3.72083200
_cell_length_b   5.11163182
_cell_length_c   6.45810435
_cell_angle_alpha   78.93856761
_cell_angle_beta   83.00694463
_cell_angle_gamma   78.92460789
_symmetry_Int_Tables_number   1
_chemical_formula_structural   SrNbH13
_chemical_formula_sum   'Sr1 Nb1 H13'
_cell_volume   117.84252162
_cell_formula_units_Z   1
loop_
 _symmetry_equiv_pos_site_id
 _symmetry_equiv_pos_as_xyz
  1  'x, y, z'
loop_
 _atom_site_type_symbol
 _atom_site_label
 _atom_site_symmetry_multiplicity
 _atom_site_fract_x
 _atom_site_fract_y
 _atom_site_fract_z
 _atom_site_occupancy
  H  H0  1  0.66249500  0.43653000  0.14540300  1
  H  H1  1  0.88788000  0.35880500  0.09338100  1
  H  H2  1  0.21356800  0.30702600  0.86343800  1
  H  H3  1  0.07992800  0.08485700  0.55535000  1
  H  H4  1  0.88319000  0.12651000  0.52473500  1
  H  H5  1  0.35998100  0.09279700  0.27010200  1
  H  H6  1  0.24427900  0.22424600  0.34937300  1
  Nb  Nb7  1  0.32625100  0.62568800  0.59431100  1
  H  H8  1  0.61229700  0.36441500  0.60578000  1
  H  H9  1  0.49313400  0.93795000  0.56028900  1
  H  H10  1  0.00531100  0.79930300  0.19208300  1
  H  H11  1  0.14358600  0.78098300  0.08995800  1
  H  H12  1  0.24047500  0.70610600  0.88746500  1
  Sr  Sr13  1  0.73181700  0.97963700  0.96446900  1
  H  H14  1  0.74210900  0.61152600  0.76869000  1
