# generated using pymatgen
data_Sr(NbH9)2
_symmetry_space_group_name_H-M   'P 1'
_cell_length_a   4.09227800
_cell_length_b   5.46834137
_cell_length_c   7.10401868
_cell_angle_alpha   93.96541450
_cell_angle_beta   96.84623490
_cell_angle_gamma   109.43780128
_symmetry_Int_Tables_number   1
_chemical_formula_structural   Sr(NbH9)2
_chemical_formula_sum   'Sr1 Nb2 H18'
_cell_volume   147.83482730
_cell_formula_units_Z   1
loop_
 _symmetry_equiv_pos_site_id
 _symmetry_equiv_pos_as_xyz
  1  'x, y, z'
loop_
 _atom_site_type_symbol
 _atom_site_label
 _atom_site_symmetry_multiplicity
 _atom_site_fract_x
 _atom_site_fract_y
 _atom_site_fract_z
 _atom_site_occupancy
  H  H0  1  0.88100000  0.58232200  0.14082700  1
  H  H1  1  0.98640000  0.60783800  0.22304400  1
  H  H2  1  0.63571200  0.50001800  0.92026500  1
  H  H3  1  0.66122800  0.42148200  0.91782700  1
  H  H4  1  0.92133200  0.61051800  0.93056500  1
  H  H5  1  0.10427900  0.87672400  0.95845200  1
  H  H6  1  0.22826100  0.80601300  0.97815100  1
  H  H7  1  0.25879400  0.66444700  0.00216100  1
  H  H8  1  0.38861100  0.62127400  0.92340300  1
  H  H9  1  0.62111800  0.65977200  0.05880400  1
  Nb  Nb10  1  0.29106400  0.90917300  0.14713200  1
  H  H11  1  0.03397100  0.05614300  0.16471700  1
  H  H12  1  0.21959600  0.22970000  0.52002700  1
  H  H13  1  0.21566200  0.20092800  0.41090200  1
  H  H14  1  0.62171100  0.27382400  0.47202500  1
  H  H15  1  0.59815300  0.15450700  0.43289400  1
  H  H16  1  0.54337600  0.20434700  0.54115300  1
  H  H17  1  0.62309300  0.99400400  0.52833300  1
  Sr  Sr18  1  0.12252100  0.01826100  0.66409500  1
  Nb  Nb19  1  0.54758800  0.57912500  0.55161700  1
  H  H20  1  0.08418100  0.59200800  0.49080800  1
