# generated using pymatgen
data_Sr2Nb4H17
_symmetry_space_group_name_H-M   'P 1'
_cell_length_a   3.50574900
_cell_length_b   6.84920835
_cell_length_c   7.99202526
_cell_angle_alpha   102.66239625
_cell_angle_beta   102.67160965
_cell_angle_gamma   89.90530460
_symmetry_Int_Tables_number   1
_chemical_formula_structural   Sr2Nb4H17
_chemical_formula_sum   'Sr2 Nb4 H17'
_cell_volume   182.45620804
_cell_formula_units_Z   1
loop_
 _symmetry_equiv_pos_site_id
 _symmetry_equiv_pos_as_xyz
  1  'x, y, z'
loop_
 _atom_site_type_symbol
 _atom_site_label
 _atom_site_symmetry_multiplicity
 _atom_site_fract_x
 _atom_site_fract_y
 _atom_site_fract_z
 _atom_site_occupancy
  H  H0  1  0.29639900  0.94642300  0.35411700  1
  H  H1  1  0.42339800  0.00131900  0.60764400  1
  H  H2  1  0.17392500  0.87675700  0.09743000  1
  Nb  Nb3  1  0.23257700  0.65434600  0.22169900  1
  H  H4  1  0.50172300  0.67341800  0.19449400  1
  H  H5  1  0.67428800  0.64299700  0.10359000  1
  H  H6  1  0.79815100  0.68954400  0.35602200  1
  H  H7  1  0.98574500  0.54256800  0.73819300  1
  H  H8  1  0.11168100  0.57777200  0.97882900  1
  Nb  Nb9  1  0.86458900  0.47917500  0.49556600  1
  H  H10  1  0.30063700  0.43229200  0.37156800  1
  H  H11  1  0.42343200  0.51872400  0.61570800  1
  H  H12  1  0.48062400  0.37435600  0.15907500  1
  H  H13  1  0.95493600  0.38204900  0.14537700  1
  Nb  Nb14  1  0.86415600  0.97645900  0.48927100  1
  H  H15  1  0.98584600  0.03453400  0.73187400  1
  H  H16  1  0.10660700  0.11538800  0.97458000  1
  Nb  Nb17  1  0.22816900  0.16712800  0.21972800  1
  H  H18  1  0.92807000  0.75833800  0.61463400  1
  H  H19  1  0.92022200  0.25527300  0.61013600  1
  H  H20  1  0.78351100  0.17789700  0.33548500  1
  Sr  Sr21  1  0.53918400  0.31628300  0.84900000  1
  Sr  Sr22  1  0.55327600  0.82623000  0.86232300  1
