# generated using pymatgen
data_SrNbH13
_symmetry_space_group_name_H-M   'P 1'
_cell_length_a   4.57574200
_cell_length_b   5.50799154
_cell_length_c   5.51610950
_cell_angle_alpha   65.67086419
_cell_angle_beta   76.13258223
_cell_angle_gamma   75.41333846
_symmetry_Int_Tables_number   1
_chemical_formula_structural   SrNbH13
_chemical_formula_sum   'Sr1 Nb1 H13'
_cell_volume   121.12905876
_cell_formula_units_Z   1
loop_
 _symmetry_equiv_pos_site_id
 _symmetry_equiv_pos_as_xyz
  1  'x, y, z'
loop_
 _atom_site_type_symbol
 _atom_site_label
 _atom_site_symmetry_multiplicity
 _atom_site_fract_x
 _atom_site_fract_y
 _atom_site_fract_z
 _atom_site_occupancy
  H  H0  1  0.75095200  0.99705600  0.79879700  1
  H  H1  1  0.78643200  0.13843000  0.69297400  1
  H  H2  1  0.24264800  0.68687900  0.30826500  1
  H  H3  1  0.27139000  0.60010000  0.29865900  1
  H  H4  1  0.34986200  0.70387900  0.17144600  1
  H  H5  1  0.10856000  0.99452500  0.82879000  1
  Sr  Sr6  1  0.26818300  0.03739900  0.02036300  1
  H  H7  1  0.50686600  0.44157900  0.06205000  1
  H  H8  1  0.92007200  0.44651800  0.91514300  1
  H  H9  1  0.11681000  0.47713300  0.87349000  1
  Nb  Nb10  1  0.67374900  0.40755700  0.37431200  1
  H  H11  1  0.38770300  0.39608800  0.63558500  1
  H  H12  1  0.75952500  0.11440300  0.29389400  1
  H  H13  1  0.25789100  0.23317800  0.38847400  1
  H  H14  1  0.67815700  0.62450000  0.59418000  1
