# generated using pymatgen
data_Sr3Nb2H15
_symmetry_space_group_name_H-M   'P 1'
_cell_length_a   5.37573900
_cell_length_b   6.38834983
_cell_length_c   6.93522663
_cell_angle_alpha   81.81738660
_cell_angle_beta   75.59516138
_cell_angle_gamma   76.56870304
_symmetry_Int_Tables_number   1
_chemical_formula_structural   Sr3Nb2H15
_chemical_formula_sum   'Sr3 Nb2 H15'
_cell_volume   223.46797551
_cell_formula_units_Z   1
loop_
 _symmetry_equiv_pos_site_id
 _symmetry_equiv_pos_as_xyz
  1  'x, y, z'
loop_
 _atom_site_type_symbol
 _atom_site_label
 _atom_site_symmetry_multiplicity
 _atom_site_fract_x
 _atom_site_fract_y
 _atom_site_fract_z
 _atom_site_occupancy
  H  H0  1  0.17635700  0.02070200  0.66550100  1
  Sr  Sr1  1  0.33030100  0.73494000  0.58299700  1
  Nb  Nb2  1  0.70122600  0.59616500  0.98400300  1
  H  H3  1  0.52016100  0.51513400  0.85109100  1
  H  H4  1  0.86149200  0.83313400  0.92507300  1
  H  H5  1  0.76825900  0.72663100  0.72267200  1
  H  H6  1  0.51578400  0.75976300  0.19634900  1
  H  H7  1  0.91903200  0.45431600  0.18429400  1
  H  H8  1  0.95694600  0.26223400  0.44014800  1
  H  H9  1  0.75593600  0.40077100  0.51039200  1
  Nb  Nb10  1  0.24366200  0.26343800  0.39459900  1
  H  H11  1  0.36060200  0.39150300  0.49270200  1
  H  H12  1  0.63286500  0.12915800  0.52812400  1
  H  H13  1  0.98670300  0.62007600  0.41805600  1
  H  H14  1  0.40552500  0.46535900  0.17011900  1
  H  H15  1  0.09636000  0.50819400  0.85465300  1
  H  H16  1  0.37125200  0.83407700  0.92403000  1
  H  H17  1  0.26409200  0.10553900  0.12032500  1
  Sr  Sr18  1  0.92857700  0.95362400  0.18377100  1
  Sr  Sr19  1  0.77111800  0.18794900  0.86230900  1
