# generated using pymatgen
data_Sr(NbH7)2
_symmetry_space_group_name_H-M   'P 1'
_cell_length_a   3.97264000
_cell_length_b   4.97740705
_cell_length_c   6.68905074
_cell_angle_alpha   102.73261032
_cell_angle_beta   101.00504318
_cell_angle_gamma   98.76689961
_symmetry_Int_Tables_number   1
_chemical_formula_structural   Sr(NbH7)2
_chemical_formula_sum   'Sr1 Nb2 H14'
_cell_volume   124.00042056
_cell_formula_units_Z   1
loop_
 _symmetry_equiv_pos_site_id
 _symmetry_equiv_pos_as_xyz
  1  'x, y, z'
loop_
 _atom_site_type_symbol
 _atom_site_label
 _atom_site_symmetry_multiplicity
 _atom_site_fract_x
 _atom_site_fract_y
 _atom_site_fract_z
 _atom_site_occupancy
  H  H0  1  0.55114100  0.54133100  0.55153800  1
  H  H1  1  0.71348500  0.72113200  0.58700000  1
  H  H2  1  0.76968500  0.44751800  0.41438200  1
  H  H3  1  0.12185300  0.50938900  0.17758200  1
  H  H4  1  0.97554400  0.80311700  0.26683700  1
  H  H5  1  0.37948600  0.25461600  0.74818400  1
  H  H6  1  0.69962900  0.21894000  0.85773400  1
  H  H7  1  0.10643000  0.08998800  0.12879000  1
  H  H8  1  0.90892600  0.10880300  0.08450900  1
  H  H9  1  0.55955900  0.10337100  0.14816000  1
  Nb  Nb10  1  0.25998200  0.25770200  0.98210100  1
  Nb  Nb11  1  0.92522100  0.14669200  0.32643400  1
  H  H12  1  0.23526800  0.58368600  0.94800400  1
  H  H13  1  0.95330000  0.16779800  0.60172400  1
  H  H14  1  0.58510000  0.51233900  0.17589400  1
  Sr  Sr15  1  0.47855900  0.93556900  0.43128300  1
  H  H16  1  0.19472300  0.88512900  0.78347300  1
