# generated using pymatgen
data_Sr2NbH19
_symmetry_space_group_name_H-M   'P 1'
_cell_length_a   5.68240600
_cell_length_b   5.70439128
_cell_length_c   6.58149104
_cell_angle_alpha   79.91248444
_cell_angle_beta   78.51200439
_cell_angle_gamma   79.89562752
_symmetry_Int_Tables_number   1
_chemical_formula_structural   Sr2NbH19
_chemical_formula_sum   'Sr2 Nb1 H19'
_cell_volume   203.63515738
_cell_formula_units_Z   1
loop_
 _symmetry_equiv_pos_site_id
 _symmetry_equiv_pos_as_xyz
  1  'x, y, z'
loop_
 _atom_site_type_symbol
 _atom_site_label
 _atom_site_symmetry_multiplicity
 _atom_site_fract_x
 _atom_site_fract_y
 _atom_site_fract_z
 _atom_site_occupancy
  H  H0  1  0.71043000  0.84268000  0.36044700  1
  H  H1  1  0.79090300  0.71302700  0.35478100  1
  H  H2  1  0.60354300  0.12568500  0.42763300  1
  H  H3  1  0.16605400  0.99636600  0.36170800  1
  H  H4  1  0.03208500  0.07191400  0.38824200  1
  H  H5  1  0.76991700  0.14813700  0.01991600  1
  H  H6  1  0.78820000  0.21939700  0.91931700  1
  H  H7  1  0.90970600  0.10645200  0.06651200  1
  H  H8  1  0.75753100  0.23905100  0.77782000  1
  H  H9  1  0.29256200  0.20073400  0.00076000  1
  H  H10  1  0.39854000  0.42625200  0.97990600  1
  H  H11  1  0.73557500  0.56902900  0.00337700  1
  H  H12  1  0.92049200  0.51731700  0.94815700  1
  Nb  Nb13  1  0.60786400  0.59272100  0.83408600  1
  H  H14  1  0.98024100  0.42865200  0.17414200  1
  H  H15  1  0.65008200  0.89677400  0.83854200  1
  H  H16  1  0.90512400  0.51089300  0.66875300  1
  H  H17  1  0.42444800  0.89439500  0.11061200  1
  H  H18  1  0.29177100  0.81106500  0.89867500  1
  Sr  Sr19  1  0.24966000  0.22934300  0.71521600  1
  H  H20  1  0.35989600  0.58634700  0.66531400  1
  Sr  Sr21  1  0.35935500  0.47091600  0.33578600  1
