# generated using pymatgen
data_Sr(NbH8)2
_symmetry_space_group_name_H-M   'P 1'
_cell_length_a   4.49793200
_cell_length_b   5.41583195
_cell_length_c   6.32275362
_cell_angle_alpha   112.22806828
_cell_angle_beta   92.95412726
_cell_angle_gamma   104.83247605
_symmetry_Int_Tables_number   1
_chemical_formula_structural   Sr(NbH8)2
_chemical_formula_sum   'Sr1 Nb2 H16'
_cell_volume   135.91763617
_cell_formula_units_Z   1
loop_
 _symmetry_equiv_pos_site_id
 _symmetry_equiv_pos_as_xyz
  1  'x, y, z'
loop_
 _atom_site_type_symbol
 _atom_site_label
 _atom_site_symmetry_multiplicity
 _atom_site_fract_x
 _atom_site_fract_y
 _atom_site_fract_z
 _atom_site_occupancy
  H  H0  1  0.87705300  0.24733800  0.62363000  1
  H  H1  1  0.69131700  0.98172300  0.66487600  1
  Nb  Nb2  1  0.30092400  0.06643000  0.11771400  1
  H  H3  1  0.47378800  0.31838700  0.29041800  1
  H  H4  1  0.25127300  0.95335000  0.87344800  1
  H  H5  1  0.72192300  0.40102200  0.48510100  1
  H  H6  1  0.86862100  0.72499700  0.58745700  1
  H  H7  1  0.86847700  0.72499200  0.13755100  1
  H  H8  1  0.03749700  0.82721000  0.16041100  1
  H  H9  1  0.86852500  0.27504800  0.13759800  1
  H  H10  1  0.02279400  0.32213000  0.13419100  1
  Nb  Nb11  1  0.31091200  0.57790800  0.18968300  1
  H  H12  1  0.32120400  0.66882400  0.42811900  1
  H  H13  1  0.00080600  0.13081100  0.27369100  1
  H  H14  1  0.45268800  0.73075900  0.03540000  1
  H  H15  1  0.50577100  0.94146600  0.29239100  1
  H  H16  1  0.46190300  0.32716100  0.02293500  1
  H  H17  1  0.25627500  0.45457900  0.69651600  1
  Sr  Sr18  1  0.16077300  0.06176600  0.54635300  1
