# generated using pymatgen
data_Sr2NbH15
_symmetry_space_group_name_H-M   'P 1'
_cell_length_a   5.11409000
_cell_length_b   5.83224232
_cell_length_c   6.85627293
_cell_angle_alpha   106.66467476
_cell_angle_beta   110.44762628
_cell_angle_gamma   94.62881318
_symmetry_Int_Tables_number   1
_chemical_formula_structural   Sr2NbH15
_chemical_formula_sum   'Sr2 Nb1 H15'
_cell_volume   179.80075977
_cell_formula_units_Z   1
loop_
 _symmetry_equiv_pos_site_id
 _symmetry_equiv_pos_as_xyz
  1  'x, y, z'
loop_
 _atom_site_type_symbol
 _atom_site_label
 _atom_site_symmetry_multiplicity
 _atom_site_fract_x
 _atom_site_fract_y
 _atom_site_fract_z
 _atom_site_occupancy
  H  H0  1  0.90853700  0.67833900  0.81456200  1
  H  H1  1  0.99908300  0.75035900  0.75606000  1
  H  H2  1  0.90853700  0.17833900  0.81456200  1
  H  H3  1  0.99908300  0.25035900  0.75606000  1
  Sr  Sr4  1  0.04556300  0.99221500  0.59249300  1
  H  H5  1  0.17099300  0.45650500  0.65812700  1
  H  H6  1  0.26155700  0.69556400  0.36335800  1
  H  H7  1  0.58988200  0.98461400  0.49821200  1
  H  H8  1  0.46843100  0.24855000  0.99632800  1
  H  H9  1  0.55208100  0.32183300  0.93596200  1
  H  H10  1  0.42781300  0.43990400  0.09910800  1
  H  H11  1  0.46843100  0.74855000  0.99632800  1
  H  H12  1  0.59727100  0.73094300  0.07616900  1
  H  H13  1  0.55208100  0.82183300  0.93596200  1
  Nb  Nb14  1  0.28532700  0.72058000  0.07684100  1
  H  H15  1  0.39601900  0.00833200  0.06042400  1
  H  H16  1  0.15952800  0.00121200  0.25669500  1
  Sr  Sr17  1  0.52893200  0.44693700  0.56146000  1
