# generated using pymatgen
data_SrNbH15
_symmetry_space_group_name_H-M   'P 1'
_cell_length_a   4.38154400
_cell_length_b   4.85312998
_cell_length_c   6.62749813
_cell_angle_alpha   95.41726507
_cell_angle_beta   102.50222142
_cell_angle_gamma   100.16281289
_symmetry_Int_Tables_number   1
_chemical_formula_structural   SrNbH15
_chemical_formula_sum   'Sr1 Nb1 H15'
_cell_volume   134.13245545
_cell_formula_units_Z   1
loop_
 _symmetry_equiv_pos_site_id
 _symmetry_equiv_pos_as_xyz
  1  'x, y, z'
loop_
 _atom_site_type_symbol
 _atom_site_label
 _atom_site_symmetry_multiplicity
 _atom_site_fract_x
 _atom_site_fract_y
 _atom_site_fract_z
 _atom_site_occupancy
  H  H0  1  0.08313100  0.63096900  0.20546900  1
  H  H1  1  0.06879000  0.73848200  0.28421500  1
  H  H2  1  0.17160900  0.57617200  0.29690400  1
  H  H3  1  0.72158200  0.34228800  0.93128700  1
  H  H4  1  0.66271900  0.32769000  0.67467600  1
  H  H5  1  0.58313100  0.63096900  0.20546900  1
  H  H6  1  0.56879000  0.73848200  0.28421500  1
  H  H7  1  0.47441100  0.89869400  0.48406700  1
  Nb  Nb8  1  0.44665400  0.56527500  0.54480900  1
  H  H9  1  0.63038000  0.77497800  0.75492600  1
  H  H10  1  0.16317800  0.28417700  0.47236400  1
  H  H11  1  0.26901800  0.49678400  0.73551900  1
  H  H12  1  0.63327200  0.35379400  0.41201200  1
  H  H13  1  0.95855700  0.67290100  0.53716800  1
  H  H14  1  0.90804400  0.06338500  0.09983900  1
  Sr  Sr15  1  0.12735500  0.06480000  0.71976300  1
  H  H16  1  0.40804400  0.06338500  0.09983900  1
