# generated using pymatgen
data_SrNbH21
_symmetry_space_group_name_H-M   'P 1'
_cell_length_a   5.07128600
_cell_length_b   5.33290922
_cell_length_c   6.86069647
_cell_angle_alpha   97.16765823
_cell_angle_beta   104.23392208
_cell_angle_gamma   104.57415527
_symmetry_Int_Tables_number   1
_chemical_formula_structural   SrNbH21
_chemical_formula_sum   'Sr1 Nb1 H21'
_cell_volume   170.58235927
_cell_formula_units_Z   1
loop_
 _symmetry_equiv_pos_site_id
 _symmetry_equiv_pos_as_xyz
  1  'x, y, z'
loop_
 _atom_site_type_symbol
 _atom_site_label
 _atom_site_symmetry_multiplicity
 _atom_site_fract_x
 _atom_site_fract_y
 _atom_site_fract_z
 _atom_site_occupancy
  H  H0  1  0.02250000  0.66631200  0.20149000  1
  H  H1  1  0.06511500  0.60961700  0.11182400  1
  H  H2  1  0.35168300  0.99731600  0.25406600  1
  H  H3  1  0.49646900  0.04053900  0.33250100  1
  H  H4  1  0.72718200  0.25821400  0.14115500  1
  H  H5  1  0.77444000  0.15167900  0.08704300  1
  H  H6  1  0.58698900  0.97226800  0.64587000  1
  H  H7  1  0.72445500  0.08746800  0.72417200  1
  H  H8  1  0.28899900  0.95229200  0.84620400  1
  H  H9  1  0.24859300  0.78326500  0.84216400  1
  H  H10  1  0.01134500  0.52536800  0.72016500  1
  H  H11  1  0.13358800  0.16949300  0.73376800  1
  Sr  Sr12  1  0.92070700  0.82364100  0.66139100  1
  H  H13  1  0.91418400  0.92523000  0.92225900  1
  H  H14  1  0.85282700  0.96294400  0.43151100  1
  H  H15  1  0.18408600  0.80456100  0.52231400  1
  H  H16  1  0.62244100  0.61477600  0.73038100  1
  H  H17  1  0.71296400  0.55065300  0.43159500  1
  H  H18  1  0.59876600  0.70270600  0.02969800  1
  H  H19  1  0.59319400  0.72189600  0.13918600  1
  H  H20  1  0.35161100  0.36860600  0.11689700  1
  H  H21  1  0.21887400  0.25709200  0.05841300  1
  Nb  Nb22  1  0.20869900  0.36754500  0.44677900  1
