# generated using pymatgen
data_SrNbH9
_symmetry_space_group_name_H-M   'P 1'
_cell_length_a   3.21658000
_cell_length_b   4.29459967
_cell_length_c   7.45915330
_cell_angle_alpha   99.48358001
_cell_angle_beta   102.09288278
_cell_angle_gamma   98.20997239
_symmetry_Int_Tables_number   1
_chemical_formula_structural   SrNbH9
_chemical_formula_sum   'Sr1 Nb1 H9'
_cell_volume   97.68256883
_cell_formula_units_Z   1
loop_
 _symmetry_equiv_pos_site_id
 _symmetry_equiv_pos_as_xyz
  1  'x, y, z'
loop_
 _atom_site_type_symbol
 _atom_site_label
 _atom_site_symmetry_multiplicity
 _atom_site_fract_x
 _atom_site_fract_y
 _atom_site_fract_z
 _atom_site_occupancy
  H  H0  1  0.70631100  0.16781900  0.98356400  1
  H  H1  1  0.57472300  0.03959800  0.72430500  1
  H  H2  1  0.16626300  0.64991300  0.43344400  1
  H  H3  1  0.13757900  0.75742600  0.51219000  1
  H  H4  1  0.93810100  0.40450200  0.45032700  1
  H  H5  1  0.96317800  0.66910700  0.01534300  1
  H  H6  1  0.05457300  0.76523000  0.11692100  1
  Nb  Nb7  1  0.64622200  0.60837000  0.86385700  1
  H  H8  1  0.71847600  0.98607200  0.22585400  1
  H  H9  1  0.07798000  0.53833500  0.72292600  1
  Sr  Sr10  1  0.32217700  0.28481300  0.21867200  1
