# generated using pymatgen
data_Sr2Nb2H15
_symmetry_space_group_name_H-M   'P 1'
_cell_length_a   4.65575900
_cell_length_b   5.69205853
_cell_length_c   6.73635056
_cell_angle_alpha   91.59356438
_cell_angle_beta   96.79745052
_cell_angle_gamma   91.23373366
_symmetry_Int_Tables_number   1
_chemical_formula_structural   Sr2Nb2H15
_chemical_formula_sum   'Sr2 Nb2 H15'
_cell_volume   177.14020867
_cell_formula_units_Z   1
loop_
 _symmetry_equiv_pos_site_id
 _symmetry_equiv_pos_as_xyz
  1  'x, y, z'
loop_
 _atom_site_type_symbol
 _atom_site_label
 _atom_site_symmetry_multiplicity
 _atom_site_fract_x
 _atom_site_fract_y
 _atom_site_fract_z
 _atom_site_occupancy
  Nb  Nb0  1  0.46110800  0.33635400  0.28830700  1
  H  H1  1  0.75431500  0.42654200  0.28245000  1
  H  H2  1  0.35396100  0.44057700  0.46963600  1
  H  H3  1  0.10823300  0.37012400  0.24273400  1
  H  H4  1  0.34561000  0.48783100  0.08278900  1
  H  H5  1  0.24103600  0.61623700  0.81504400  1
  H  H6  1  0.97608100  0.60011700  0.83419500  1
  Sr  Sr7  1  0.67826100  0.56533500  0.71721100  1
  H  H8  1  0.78097800  0.35538700  0.79022200  1
  H  H9  1  0.64843600  0.18451100  0.91747700  1
  Nb  Nb10  1  0.28382900  0.15166400  0.88881700  1
  H  H11  1  0.37518400  0.06216400  0.70413900  1
  H  H12  1  0.97608100  0.10011700  0.83419500  1
  H  H13  1  0.63402100  0.89834900  0.28684100  1
  H  H14  1  0.75431500  0.92654200  0.28245000  1
  H  H15  1  0.29241200  0.89467900  0.28814600  1
  H  H16  1  0.37426300  0.98982300  0.08163500  1
  H  H17  1  0.78097800  0.85538700  0.79022200  1
  Sr  Sr18  1  0.05136600  0.93905300  0.47017900  1
