# generated using pymatgen
data_SrNbH22
_symmetry_space_group_name_H-M   'P 1'
_cell_length_a   4.48457300
_cell_length_b   5.93603230
_cell_length_c   7.26278517
_cell_angle_alpha   87.88006177
_cell_angle_beta   85.60449273
_cell_angle_gamma   70.74081177
_symmetry_Int_Tables_number   1
_chemical_formula_structural   SrNbH22
_chemical_formula_sum   'Sr1 Nb1 H22'
_cell_volume   181.96853673
_cell_formula_units_Z   1
loop_
 _symmetry_equiv_pos_site_id
 _symmetry_equiv_pos_as_xyz
  1  'x, y, z'
loop_
 _atom_site_type_symbol
 _atom_site_label
 _atom_site_symmetry_multiplicity
 _atom_site_fract_x
 _atom_site_fract_y
 _atom_site_fract_z
 _atom_site_occupancy
  H  H0  1  0.38966000  0.48018700  0.06942200  1
  H  H1  1  0.40103500  0.55338700  0.15295900  1
  H  H2  1  0.94344200  0.33528800  0.14193200  1
  H  H3  1  0.01070300  0.29931100  0.04279200  1
  H  H4  1  0.15280300  0.43731600  0.43095400  1
  H  H5  1  0.01960300  0.38412900  0.49994300  1
  H  H6  1  0.71619600  0.68692200  0.31183200  1
  H  H7  1  0.84576600  0.70614300  0.24309600  1
  H  H8  1  0.51036000  0.08967800  0.04247900  1
  H  H9  1  0.53208700  0.01225600  0.13186000  1
  H  H10  1  0.62038600  0.20911200  0.34935100  1
  H  H11  1  0.78384100  0.14134400  0.40537900  1
  H  H12  1  0.23018700  0.90015600  0.36112000  1
  H  H13  1  0.15562900  0.88842300  0.27078700  1
  H  H14  1  0.39518000  0.99635300  0.54692600  1
  Sr  Sr15  1  0.46193900  0.27467200  0.61689700  1
  H  H16  1  0.82005800  0.01517000  0.64756200  1
  H  H17  1  0.69879400  0.29428700  0.80963400  1
  H  H18  1  0.04923100  0.96647700  0.91925600  1
  H  H19  1  0.06519100  0.86555200  0.99410100  1
  H  H20  1  0.29426900  0.14419900  0.81896800  1
  H  H21  1  0.22203600  0.52916300  0.77575100  1
  H  H22  1  0.51623200  0.56475700  0.52231700  1
  Nb  Nb23  1  0.64906800  0.71569000  0.81426400  1
