# generated using pymatgen
data_SrNb2H7
_symmetry_space_group_name_H-M   'P 1'
_cell_length_a   4.92127500
_cell_length_b   5.92341084
_cell_length_c   7.12338007
_cell_angle_alpha   66.24750984
_cell_angle_beta   83.36915761
_cell_angle_gamma   88.65960932
_symmetry_Int_Tables_number   1
_chemical_formula_structural   SrNb2H7
_chemical_formula_sum   'Sr1 Nb2 H7'
_cell_volume   188.72998115
_cell_formula_units_Z   1
loop_
 _symmetry_equiv_pos_site_id
 _symmetry_equiv_pos_as_xyz
  1  'x, y, z'
loop_
 _atom_site_type_symbol
 _atom_site_label
 _atom_site_symmetry_multiplicity
 _atom_site_fract_x
 _atom_site_fract_y
 _atom_site_fract_z
 _atom_site_occupancy
  H  H0  1  0.76126900  0.11026500  0.53565800  1
  H  H1  1  0.74728600  0.14700300  0.36275100  1
  H  H2  1  0.51280000  0.94611900  0.43963200  1
  Sr  Sr3  1  0.11928900  0.19392200  0.58270900  1
  Nb  Nb4  1  0.09206400  0.96927100  0.35303700  1
  H  H5  1  0.79600900  0.79361900  0.97198000  1
  H  H6  1  0.78124300  0.90849800  0.06018200  1
  H  H7  1  0.69954400  0.07031200  0.10502700  1
  H  H8  1  0.55239800  0.24352000  0.93866200  1
  Nb  Nb9  1  0.97854400  0.46675400  0.06736200  1
