# generated using pymatgen
data_SrNbH8
_symmetry_space_group_name_H-M   'P 1'
_cell_length_a   5.12073900
_cell_length_b   6.31051669
_cell_length_c   7.05680027
_cell_angle_alpha   72.28746013
_cell_angle_beta   70.65464941
_cell_angle_gamma   66.86676986
_symmetry_Int_Tables_number   1
_chemical_formula_structural   SrNbH8
_chemical_formula_sum   'Sr2 Nb2 H16'
_cell_volume   193.83757848
_cell_formula_units_Z   2
loop_
 _symmetry_equiv_pos_site_id
 _symmetry_equiv_pos_as_xyz
  1  'x, y, z'
loop_
 _atom_site_type_symbol
 _atom_site_label
 _atom_site_symmetry_multiplicity
 _atom_site_fract_x
 _atom_site_fract_y
 _atom_site_fract_z
 _atom_site_occupancy
  H  H0  1  0.37634500  0.84423400  0.16288900  1
  H  H1  1  0.57707100  0.82136100  0.96826800  1
  Nb  Nb2  1  0.70860600  0.61361000  0.22910200  1
  H  H3  1  0.58040500  0.47997600  0.09483200  1
  H  H4  1  0.53971900  0.76885000  0.44566500  1
  H  H5  1  0.07754700  0.44642500  0.09452900  1
  H  H6  1  0.94850200  0.45798600  0.41378100  1
  Nb  Nb7  1  0.17377800  0.32214400  0.61126300  1
  H  H8  1  0.37759100  0.39922500  0.73019800  1
  H  H9  1  0.09865000  0.19649300  0.88308100  1
  H  H10  1  0.05171000  0.63060400  0.62135900  1
  H  H11  1  0.48914400  0.07667000  0.67805100  1
  H  H12  1  0.33762900  0.15661200  0.40545200  1
  H  H13  1  0.78275100  0.42364000  0.74239300  1
  H  H14  1  0.73470700  0.15338300  0.96009200  1
  H  H15  1  0.99911900  0.08653400  0.68277300  1
  H  H16  1  0.89499600  0.84392200  0.15107100  1
  H  H17  1  0.52626700  0.39155900  0.41784100  1
  Sr  Sr18  1  0.33564300  0.73230100  0.83068800  1
  Sr  Sr19  1  0.92760400  0.99466200  0.40657700  1
