# generated using pymatgen
data_SrNbH15
_symmetry_space_group_name_H-M   'P 1'
_cell_length_a   3.69984100
_cell_length_b   4.69586646
_cell_length_c   8.94112785
_cell_angle_alpha   77.69415011
_cell_angle_beta   82.90232865
_cell_angle_gamma   66.87740409
_symmetry_Int_Tables_number   1
_chemical_formula_structural   SrNbH15
_chemical_formula_sum   'Sr1 Nb1 H15'
_cell_volume   139.44368889
_cell_formula_units_Z   1
loop_
 _symmetry_equiv_pos_site_id
 _symmetry_equiv_pos_as_xyz
  1  'x, y, z'
loop_
 _atom_site_type_symbol
 _atom_site_label
 _atom_site_symmetry_multiplicity
 _atom_site_fract_x
 _atom_site_fract_y
 _atom_site_fract_z
 _atom_site_occupancy
  H  H0  1  0.50047100  0.67412000  0.57129500  1
  H  H1  1  0.68459100  0.90037900  0.53756700  1
  Sr  Sr2  1  0.25217800  0.48703100  0.52257800  1
  H  H3  1  0.20150500  0.13459500  0.51948700  1
  H  H4  1  0.12432100  0.31699200  0.18532400  1
  H  H5  1  0.51730500  0.28919000  0.19256200  1
  H  H6  1  0.61890900  0.64958000  0.23828900  1
  H  H7  1  0.88751800  0.82470800  0.18882800  1
  Nb  Nb8  1  0.47362700  0.97825200  0.29315900  1
  H  H9  1  0.03687000  0.57921500  0.93085300  1
  H  H10  1  0.94663000  0.72211300  0.82255100  1
  H  H11  1  0.85786300  0.36484600  0.83143800  1
  H  H12  1  0.93253900  0.31239200  0.94784400  1
  H  H13  1  0.59641300  0.44923200  0.95158500  1
  H  H14  1  0.09641300  0.94923200  0.95158500  1
  H  H15  1  0.75222300  0.13266900  0.74651200  1
  H  H16  1  0.44856500  0.09552000  0.95072500  1
