# generated using pymatgen
data_SrNbH16
_symmetry_space_group_name_H-M   'P 1'
_cell_length_a   5.04895500
_cell_length_b   5.06861241
_cell_length_c   5.81345382
_cell_angle_alpha   100.30528555
_cell_angle_beta   95.92586434
_cell_angle_gamma   90.71114389
_symmetry_Int_Tables_number   1
_chemical_formula_structural   SrNbH16
_chemical_formula_sum   'Sr1 Nb1 H16'
_cell_volume   145.51862855
_cell_formula_units_Z   1
loop_
 _symmetry_equiv_pos_site_id
 _symmetry_equiv_pos_as_xyz
  1  'x, y, z'
loop_
 _atom_site_type_symbol
 _atom_site_label
 _atom_site_symmetry_multiplicity
 _atom_site_fract_x
 _atom_site_fract_y
 _atom_site_fract_z
 _atom_site_occupancy
  H  H0  1  0.28895200  0.84268000  0.21228700  1
  H  H1  1  0.36942500  0.71302700  0.20662000  1
  H  H2  1  0.18206500  0.12568500  0.27947200  1
  H  H3  1  0.74457600  0.99636600  0.21354700  1
  H  H4  1  0.61060700  0.07191400  0.24008100  1
  H  H5  1  0.77089900  0.72271600  0.83547300  1
  H  H6  1  0.67703700  0.79603600  0.74039100  1
  H  H7  1  0.00297000  0.89439500  0.96245100  1
  H  H8  1  0.91437500  0.01968200  0.89358400  1
  H  H9  1  0.87108400  0.20073400  0.85259900  1
  Nb  Nb10  1  0.64195900  0.42988800  0.74185300  1
  H  H11  1  0.48364600  0.51089300  0.52059300  1
  H  H12  1  0.74256800  0.17642800  0.56689700  1
  H  H13  1  0.48822800  0.10645200  0.91835200  1
  H  H14  1  0.34843900  0.14813700  0.87175500  1
  H  H15  1  0.55876300  0.42865200  0.02598200  1
  H  H16  1  0.31409700  0.56902900  0.85521700  1
  Sr  Sr17  1  0.23159600  0.92860900  0.59258700  1
