# generated using pymatgen
data_SrNb2H7
_symmetry_space_group_name_H-M   'P 1'
_cell_length_a   4.45882400
_cell_length_b   6.44545072
_cell_length_c   6.99787586
_cell_angle_alpha   70.98575306
_cell_angle_beta   83.04466283
_cell_angle_gamma   88.30425376
_symmetry_Int_Tables_number   1
_chemical_formula_structural   SrNb2H7
_chemical_formula_sum   'Sr1 Nb2 H7'
_cell_volume   188.72997792
_cell_formula_units_Z   1
loop_
 _symmetry_equiv_pos_site_id
 _symmetry_equiv_pos_as_xyz
  1  'x, y, z'
loop_
 _atom_site_type_symbol
 _atom_site_label
 _atom_site_symmetry_multiplicity
 _atom_site_fract_x
 _atom_site_fract_y
 _atom_site_fract_z
 _atom_site_occupancy
  H  H0  1  0.79623200  0.64053400  0.96217500  1
  Nb  Nb1  1  0.10381900  0.54983400  0.94624100  1
  H  H2  1  0.56907100  0.81340200  0.88956500  1
  H  H3  1  0.74526400  0.31313700  0.12911400  1
  H  H4  1  0.15934400  0.11677900  0.47173400  1
  Nb  Nb5  1  0.42048700  0.96963400  0.55856500  1
  H  H6  1  0.34654300  0.83988400  0.40548100  1
  H  H7  1  0.84950400  0.28065000  0.72103000  1
  Sr  Sr8  1  0.60378900  0.34813300  0.82709300  1
  H  H9  1  0.59357100  0.56643800  0.54219500  1
