# generated using pymatgen
data_SrNb2H19
_symmetry_space_group_name_H-M   'P 1'
_cell_length_a   3.39486800
_cell_length_b   6.37038624
_cell_length_c   7.93863092
_cell_angle_alpha   89.73266548
_cell_angle_beta   85.02418504
_cell_angle_gamma   88.91354866
_symmetry_Int_Tables_number   1
_chemical_formula_structural   SrNb2H19
_chemical_formula_sum   'Sr1 Nb2 H19'
_cell_volume   171.00720685
_cell_formula_units_Z   1
loop_
 _symmetry_equiv_pos_site_id
 _symmetry_equiv_pos_as_xyz
  1  'x, y, z'
loop_
 _atom_site_type_symbol
 _atom_site_label
 _atom_site_symmetry_multiplicity
 _atom_site_fract_x
 _atom_site_fract_y
 _atom_site_fract_z
 _atom_site_occupancy
  H  H0  1  0.74094400  0.75153700  0.38539400  1
  H  H1  1  0.72158200  0.65771200  0.45456100  1
  Nb  Nb2  1  0.44665400  0.43472500  0.84104000  1
  H  H3  1  0.26901800  0.50321600  0.65033000  1
  H  H4  1  0.95855700  0.32709900  0.84868100  1
  H  H5  1  0.66271900  0.67231000  0.71117200  1
  H  H6  1  0.27990600  0.80862800  0.25702800  1
  H  H7  1  0.40506700  0.76243200  0.15326900  1
  H  H8  1  0.16317800  0.71582300  0.91348500  1
  H  H9  1  0.11956100  0.81598900  0.04812100  1
  H  H10  1  0.83671000  0.02812700  0.11755500  1
  H  H11  1  0.63327200  0.64620600  0.97383600  1
  H  H12  1  0.64166600  0.38047000  0.16812100  1
  H  H13  1  0.50702600  0.38587600  0.28243100  1
  H  H14  1  0.00453400  0.10734100  0.37942600  1
  H  H15  1  0.09044800  0.33713900  0.35493600  1
  H  H16  1  0.49744700  0.10316200  0.36922000  1
  Nb  Nb17  1  0.32516900  0.13041300  0.17378600  1
  H  H18  1  0.17160900  0.42382800  0.08894500  1
  H  H19  1  0.63038000  0.22502200  0.63092200  1
  H  H20  1  0.47441100  0.10130600  0.90178200  1
  Sr  Sr21  1  0.12735500  0.93520000  0.66608600  1
