# generated using pymatgen
data_SrNbH20
_symmetry_space_group_name_H-M   'P 1'
_cell_length_a   5.67921500
_cell_length_b   5.68747466
_cell_length_c   5.75032104
_cell_angle_alpha   79.00349089
_cell_angle_beta   84.52093904
_cell_angle_gamma   68.71361427
_symmetry_Int_Tables_number   1
_chemical_formula_structural   SrNbH20
_chemical_formula_sum   'Sr1 Nb1 H20'
_cell_volume   169.81854401
_cell_formula_units_Z   1
loop_
 _symmetry_equiv_pos_site_id
 _symmetry_equiv_pos_as_xyz
  1  'x, y, z'
loop_
 _atom_site_type_symbol
 _atom_site_label
 _atom_site_symmetry_multiplicity
 _atom_site_fract_x
 _atom_site_fract_y
 _atom_site_fract_z
 _atom_site_occupancy
  H  H0  1  0.95716200  0.93666500  0.53298200  1
  H  H1  1  0.07719100  0.93313600  0.46458200  1
  H  H2  1  0.24553900  0.03753900  0.13129400  1
  H  H3  1  0.25846800  0.16486600  0.13177700  1
  H  H4  1  0.87488700  0.87128300  0.05988600  1
  H  H5  1  0.89734100  0.92982700  0.15840700  1
  H  H6  1  0.58754500  0.24699900  0.34158800  1
  H  H7  1  0.59494800  0.11174200  0.34136700  1
  H  H8  1  0.78820000  0.21939700  0.87643400  1
  H  H9  1  0.75753100  0.23905100  0.73493700  1
  H  H10  1  0.20306100  0.49415200  0.23986900  1
  H  H11  1  0.07721600  0.53421600  0.30751200  1
  H  H12  1  0.83796200  0.55273800  0.54331200  1
  H  H13  1  0.66715000  0.58865700  0.13059900  1
  H  H14  1  0.51719700  0.66115500  0.12156800  1
  Nb  Nb15  1  0.60786400  0.59272100  0.79120200  1
  H  H16  1  0.50293000  0.81394600  0.52669000  1
  H  H17  1  0.49099000  0.49169000  0.56031800  1
  H  H18  1  0.92049200  0.51731700  0.90527400  1
  H  H19  1  0.29177100  0.81106500  0.85579200  1
  H  H20  1  0.65008200  0.89677400  0.79565900  1
  Sr  Sr21  1  0.24966000  0.22934300  0.67233300  1
