# generated using pymatgen
data_Sr2NbH10
_symmetry_space_group_name_H-M   'P 1'
_cell_length_a   5.03271800
_cell_length_b   5.41601434
_cell_length_c   5.67752849
_cell_angle_alpha   88.61466284
_cell_angle_beta   79.76433202
_cell_angle_gamma   80.32872826
_symmetry_Int_Tables_number   1
_chemical_formula_structural   Sr2NbH10
_chemical_formula_sum   'Sr2 Nb1 H10'
_cell_volume   150.12410493
_cell_formula_units_Z   1
loop_
 _symmetry_equiv_pos_site_id
 _symmetry_equiv_pos_as_xyz
  1  'x, y, z'
loop_
 _atom_site_type_symbol
 _atom_site_label
 _atom_site_symmetry_multiplicity
 _atom_site_fract_x
 _atom_site_fract_y
 _atom_site_fract_z
 _atom_site_occupancy
  H  H0  1  0.13027700  0.03644900  0.40512500  1
  H  H1  1  0.11185300  0.91884000  0.29589500  1
  H  H2  1  0.79437500  0.42781300  0.68568600  1
  H  H3  1  0.02082700  0.46253300  0.53820400  1
  Nb  Nb4  1  0.35840600  0.51785000  0.66209500  1
  H  H5  1  0.20339700  0.34501200  0.78225300  1
  H  H6  1  0.25502000  0.61030700  0.42490200  1
  Sr  Sr7  1  0.22440000  0.16622700  0.06288300  1
  H  H8  1  0.42992100  0.20784500  0.41335700  1
  H  H9  1  0.78591100  0.98031800  0.89358400  1
  H  H10  1  0.02985600  0.81455200  0.79311900  1
  H  H11  1  0.81097600  0.17099300  0.12666800  1
  Sr  Sr12  1  0.80140800  0.52893200  0.22333500  1
