# generated using pymatgen
data_SrNb5H14
_symmetry_space_group_name_H-M   'P 1'
_cell_length_a   4.20539100
_cell_length_b   6.09181064
_cell_length_c   6.72607237
_cell_angle_alpha   84.75335267
_cell_angle_beta   88.20513949
_cell_angle_gamma   87.69717875
_symmetry_Int_Tables_number   1
_chemical_formula_structural   SrNb5H14
_chemical_formula_sum   'Sr1 Nb5 H14'
_cell_volume   171.38481355
_cell_formula_units_Z   1
loop_
 _symmetry_equiv_pos_site_id
 _symmetry_equiv_pos_as_xyz
  1  'x, y, z'
loop_
 _atom_site_type_symbol
 _atom_site_label
 _atom_site_symmetry_multiplicity
 _atom_site_fract_x
 _atom_site_fract_y
 _atom_site_fract_z
 _atom_site_occupancy
  Nb  Nb0  1  0.91572400  0.25371800  0.41054100  1
  H  H1  1  0.62240400  0.33511500  0.52812400  1
  H  H2  1  0.67193600  0.03623500  0.22991100  1
  H  H3  1  0.30943300  0.10030300  0.18254400  1
  Nb  Nb4  1  0.31829100  0.32112300  0.30200800  1
  H  H5  1  0.64241500  0.47035400  0.23620400  1
  H  H6  1  0.38314400  0.60032000  0.18162000  1
  Nb  Nb7  1  0.31961600  0.81993200  0.30115400  1
  H  H8  1  0.24660000  0.53516300  0.44390000  1
  Nb  Nb9  1  0.89019700  0.69209400  0.16617400  1
  H  H10  1  0.20771600  0.03238100  0.45327500  1
  H  H11  1  0.99117700  0.35873400  0.12032500  1
  H  H12  1  0.97693700  0.12589700  0.71833300  1
  H  H13  1  0.08949300  0.96668900  0.71841600  1
  Nb  Nb14  1  0.99193600  0.78044100  0.70388800  1
  H  H15  1  0.79774400  0.57376600  0.85574300  1
  H  H16  1  0.10956100  0.46692600  0.71443200  1
  H  H17  1  0.76076000  0.90706800  0.89999700  1
  H  H18  1  0.72042600  0.71719300  0.46270400  1
  Sr  Sr19  1  0.48415100  0.27632300  0.86230900  1
