# generated using pymatgen
data_SrNbH20
_symmetry_space_group_name_H-M   'P 1'
_cell_length_a   5.62132900
_cell_length_b   5.69680635
_cell_length_c   5.78618425
_cell_angle_alpha   68.89141993
_cell_angle_beta   84.12154754
_cell_angle_gamma   79.47757251
_symmetry_Int_Tables_number   1
_chemical_formula_structural   SrNbH20
_chemical_formula_sum   'Sr1 Nb1 H20'
_cell_volume   169.81858838
_cell_formula_units_Z   1
loop_
 _symmetry_equiv_pos_site_id
 _symmetry_equiv_pos_as_xyz
  1  'x, y, z'
loop_
 _atom_site_type_symbol
 _atom_site_label
 _atom_site_symmetry_multiplicity
 _atom_site_fract_x
 _atom_site_fract_y
 _atom_site_fract_z
 _atom_site_occupancy
  H  H0  1  0.45802400  0.05959000  0.04416400  1
  H  H1  1  0.52522800  0.07242200  0.92073100  1
  H  H2  1  0.86214800  0.96166200  0.72308600  1
  H  H3  1  0.86051800  0.81959700  0.79232200  1
  H  H4  1  0.94471200  0.13057300  0.11446900  1
  H  H5  1  0.84509200  0.07391200  0.08544900  1
  H  H6  1  0.68374500  0.75858200  0.41875400  1
  H  H7  1  0.65217100  0.90031800  0.39939300  1
  H  H8  1  0.11080300  0.77643400  0.26434000  1
  H  H9  1  0.26220800  0.75333800  0.24818400  1
  H  H10  1  0.76788000  0.49161400  0.76662500  1
  H  H11  1  0.70961100  0.45874000  0.89766200  1
  H  H12  1  0.86465400  0.40527500  0.32733200  1
  H  H13  1  0.87036100  0.34509600  0.47828700  1
  H  H14  1  0.08465700  0.49551900  0.07117200  1
  Sr  Sr15  1  0.21382900  0.39815600  0.38196500  1
  H  H16  1  0.48291500  0.18041000  0.50769900  1
  H  H17  1  0.41695100  0.50104400  0.53806500  1
  H  H18  1  0.22158900  0.09186300  0.33980200  1
  H  H19  1  0.47818500  0.45381200  0.16003200  1
  H  H20  1  0.12942000  0.21834900  0.70861400  1
  Nb  Nb21  1  0.33191800  0.77941400  0.75666500  1
