# generated using pymatgen
data_SrNb5H19
_symmetry_space_group_name_H-M   'P 1'
_cell_length_a   4.72146600
_cell_length_b   6.06906684
_cell_length_c   7.35243602
_cell_angle_alpha   78.57242105
_cell_angle_beta   71.42348856
_cell_angle_gamma   89.82032575
_symmetry_Int_Tables_number   1
_chemical_formula_structural   SrNb5H19
_chemical_formula_sum   'Sr1 Nb5 H19'
_cell_volume   195.33912815
_cell_formula_units_Z   1
loop_
 _symmetry_equiv_pos_site_id
 _symmetry_equiv_pos_as_xyz
  1  'x, y, z'
loop_
 _atom_site_type_symbol
 _atom_site_label
 _atom_site_symmetry_multiplicity
 _atom_site_fract_x
 _atom_site_fract_y
 _atom_site_fract_z
 _atom_site_occupancy
  H  H0  1  0.80822100  0.03410400  0.30989900  1
  H  H1  1  0.97138100  0.31668900  0.25017500  1
  H  H2  1  0.51143200  0.82346400  0.23015100  1
  H  H3  1  0.84480900  0.65907400  0.22340200  1
  H  H4  1  0.26478900  0.85705600  0.07551600  1
  Nb  Nb5  1  0.21608700  0.56597600  0.24069300  1
  H  H6  1  0.12968700  0.55758100  0.00860500  1
  Nb  Nb7  1  0.46136400  0.40672900  0.85273700  1
  H  H8  1  0.83701000  0.40720400  0.85344800  1
  H  H9  1  0.57965800  0.16270200  0.02448600  1
  Nb  Nb10  1  0.23591500  0.06650900  0.24674300  1
  H  H11  1  0.48281300  0.31140400  0.24511800  1
  H  H12  1  0.13579800  0.17502600  0.01589600  1
  H  H13  1  0.57388900  0.57734100  0.01829200  1
  Nb  Nb14  1  0.60399400  0.24549200  0.47868000  1
  H  H15  1  0.27571900  0.24417600  0.70991400  1
  H  H16  1  0.71293300  0.20521600  0.71183600  1
  H  H17  1  0.87317200  0.48391400  0.49372300  1
  H  H18  1  0.04495400  0.77942800  0.42981600  1
  H  H19  1  0.62265400  0.74458200  0.46874300  1
  H  H20  1  0.72278600  0.67023000  0.70395300  1
  H  H21  1  0.28956000  0.64424900  0.70385100  1
  Nb  Nb22  1  0.34806300  0.49901200  0.47422000  1
  H  H23  1  0.33259100  0.98682500  0.51170800  1
  Sr  Sr24  1  0.93784200  0.90441200  0.86114100  1
