# generated using pymatgen
data_SrNb2H7
_symmetry_space_group_name_H-M   'P 1'
_cell_length_a   2.82651200
_cell_length_b   8.52689985
_cell_length_c   8.60034003
_cell_angle_alpha   66.06088838
_cell_angle_beta   85.09319704
_cell_angle_gamma   88.85963325
_symmetry_Int_Tables_number   1
_chemical_formula_structural   SrNb2H7
_chemical_formula_sum   'Sr1 Nb2 H7'
_cell_volume   188.73003242
_cell_formula_units_Z   1
loop_
 _symmetry_equiv_pos_site_id
 _symmetry_equiv_pos_as_xyz
  1  'x, y, z'
loop_
 _atom_site_type_symbol
 _atom_site_label
 _atom_site_symmetry_multiplicity
 _atom_site_fract_x
 _atom_site_fract_y
 _atom_site_fract_z
 _atom_site_occupancy
  H  H0  1  0.06546500  0.05736400  0.75893900  1
  Nb  Nb1  1  0.24253200  0.08761400  0.85752300  1
  H  H2  1  0.05492600  0.37578400  0.51573400  1
  H  H3  1  0.24390500  0.30261100  0.35981700  1
  H  H4  1  0.60527200  0.53289100  0.74714700  1
  H  H5  1  0.15392700  0.52762800  0.75413700  1
  H  H6  1  0.99889200  0.61632000  0.19099200  1
  Sr  Sr7  1  0.84201700  0.70256400  0.92013100  1
  Nb  Nb8  1  0.73765500  0.68412000  0.41977600  1
  H  H9  1  0.35186800  0.96241200  0.43250800  1
