# generated using pymatgen
data_SrNb2H7
_symmetry_space_group_name_H-M   'P 1'
_cell_length_a   3.41516700
_cell_length_b   6.80101163
_cell_length_c   7.85026024
_cell_angle_alpha   102.49563896
_cell_angle_beta   102.51990658
_cell_angle_gamma   90.02474304
_symmetry_Int_Tables_number   1
_chemical_formula_structural   SrNb2H7
_chemical_formula_sum   'Sr2 Nb4 H14'
_cell_volume   173.56818351
_cell_formula_units_Z   2
loop_
 _symmetry_equiv_pos_site_id
 _symmetry_equiv_pos_as_xyz
  1  'x, y, z'
loop_
 _atom_site_type_symbol
 _atom_site_label
 _atom_site_symmetry_multiplicity
 _atom_site_fract_x
 _atom_site_fract_y
 _atom_site_fract_z
 _atom_site_occupancy
  Nb  Nb0  1  0.10321200  0.49781300  0.57458400  1
  H  H1  1  0.03914900  0.22155800  0.44556000  1
  H  H2  1  0.10344800  0.93580900  0.32558000  1
  H  H3  1  0.57718600  0.96761900  0.45327500  1
  H  H4  1  0.47546900  0.89969700  0.18254400  1
  Nb  Nb5  1  0.11790700  0.99686500  0.57133700  1
  Nb  Nb6  1  0.46528500  0.18006800  0.30115400  1
  H  H7  1  0.40175700  0.39968000  0.18162000  1
  Nb  Nb8  1  0.46661100  0.67887700  0.30200800  1
  H  H9  1  0.90638900  0.63939000  0.18246600  1
  H  H10  1  0.90528300  0.15986000  0.18167200  1
  H  H11  1  0.33880200  0.61509200  0.04202600  1
  H  H12  1  0.33765700  0.11396300  0.04110300  1
  H  H13  1  0.53830100  0.46483700  0.44390000  1
  H  H14  1  0.69540900  0.03331100  0.71841600  1
  H  H15  1  0.67534000  0.53307400  0.71443200  1
  H  H16  1  0.17921200  0.28324500  0.71688500  1
  H  H17  1  0.18848900  0.78334900  0.71719700  1
  Sr  Sr18  1  0.80422600  0.83898600  0.94340600  1
  Sr  Sr19  1  0.78855000  0.34091100  0.94326700  1
