# generated using pymatgen
data_SrNbH11
_symmetry_space_group_name_H-M   'P 1'
_cell_length_a   4.76565100
_cell_length_b   5.11468300
_cell_length_c   5.55174628
_cell_angle_alpha   110.64516621
_cell_angle_beta   108.28424511
_cell_angle_gamma   98.35489601
_symmetry_Int_Tables_number   1
_chemical_formula_structural   SrNbH11
_chemical_formula_sum   'Sr1 Nb1 H11'
_cell_volume   115.14371835
_cell_formula_units_Z   1
loop_
 _symmetry_equiv_pos_site_id
 _symmetry_equiv_pos_as_xyz
  1  'x, y, z'
loop_
 _atom_site_type_symbol
 _atom_site_label
 _atom_site_symmetry_multiplicity
 _atom_site_fract_x
 _atom_site_fract_y
 _atom_site_fract_z
 _atom_site_occupancy
  H  H0  1  0.99090900  0.51841100  0.52252100  1
  H  H1  1  0.89478600  0.47271400  0.42094300  1
  H  H2  1  0.90258900  0.43121000  0.02567500  1
  H  H3  1  0.54356000  0.45650500  0.87333200  1
  H  H4  1  0.99090900  0.01841100  0.52252100  1
  H  H5  1  0.89478600  0.97271400  0.42094300  1
  Nb  Nb6  1  0.65789300  0.72058000  0.29204700  1
  H  H7  1  0.35288400  0.43144000  0.10641600  1
  H  H8  1  0.63412300  0.69556400  0.57856300  1
  H  H9  1  0.53209500  0.00121200  0.47190000  1
  H  H10  1  0.34615800  0.73779300  0.99990800  1
  Sr  Sr11  1  0.41812900  0.99221500  0.80769800  1
  H  H12  1  0.90258900  0.93121000  0.02567500  1
