# generated using pymatgen
data_Sr3Nb2H15
_symmetry_space_group_name_H-M   'P 1'
_cell_length_a   4.83112500
_cell_length_b   6.65481614
_cell_length_c   7.20410997
_cell_angle_alpha   89.31214251
_cell_angle_beta   86.53534085
_cell_angle_gamma   79.37213956
_symmetry_Int_Tables_number   1
_chemical_formula_structural   Sr3Nb2H15
_chemical_formula_sum   'Sr3 Nb2 H15'
_cell_volume   227.22461739
_cell_formula_units_Z   1
loop_
 _symmetry_equiv_pos_site_id
 _symmetry_equiv_pos_as_xyz
  1  'x, y, z'
loop_
 _atom_site_type_symbol
 _atom_site_label
 _atom_site_symmetry_multiplicity
 _atom_site_fract_x
 _atom_site_fract_y
 _atom_site_fract_z
 _atom_site_occupancy
  H  H0  1  0.98010500  0.50584800  0.39020700  1
  H  H1  1  0.09333900  0.45105300  0.46738900  1
  Nb  Nb2  1  0.21262700  0.51045700  0.22184700  1
  H  H3  1  0.65242100  0.47777900  0.34443300  1
  H  H4  1  0.93762600  0.96246100  0.28163200  1
  H  H5  1  0.92469700  0.83513400  0.28211500  1
  H  H6  1  0.14776900  0.73034800  0.34463900  1
  H  H7  1  0.65242100  0.97777900  0.34443300  1
  Nb  Nb8  1  0.21262700  0.01045700  0.22184700  1
  H  H9  1  0.09333900  0.95105300  0.46738900  1
  H  H10  1  0.14776900  0.23034800  0.34463900  1
  H  H11  1  0.28032200  0.29346600  0.08678200  1
  H  H12  1  0.28032200  0.79346600  0.08678200  1
  H  H13  1  0.40669700  0.86030800  0.82915300  1
  H  H14  1  0.40669700  0.36030800  0.82915300  1
  H  H15  1  0.78462600  0.57374800  0.08736100  1
  Sr  Sr16  1  0.52930100  0.16887200  0.58693600  1
  Sr  Sr17  1  0.52930100  0.66887200  0.58693600  1
  H  H18  1  0.89139400  0.18893500  0.00613000  1
  Sr  Sr19  1  0.93350500  0.77065700  0.82267100  1
