# generated using pymatgen
data_Sr3Nb3H14
_symmetry_space_group_name_H-M   'P 1'
_cell_length_a   5.99480800
_cell_length_b   6.02761816
_cell_length_c   6.26924487
_cell_angle_alpha   116.13071532
_cell_angle_beta   95.48380880
_cell_angle_gamma   90.27046220
_symmetry_Int_Tables_number   1
_chemical_formula_structural   Sr3Nb3H14
_chemical_formula_sum   'Sr3 Nb3 H14'
_cell_volume   202.17293495
_cell_formula_units_Z   1
loop_
 _symmetry_equiv_pos_site_id
 _symmetry_equiv_pos_as_xyz
  1  'x, y, z'
loop_
 _atom_site_type_symbol
 _atom_site_label
 _atom_site_symmetry_multiplicity
 _atom_site_fract_x
 _atom_site_fract_y
 _atom_site_fract_z
 _atom_site_occupancy
  H  H0  1  0.74582700  0.66921100  0.38662300  1
  H  H1  1  0.62366600  0.75266300  0.63388300  1
  H  H2  1  0.41702100  0.13459300  0.00939200  1
  H  H3  1  0.37633400  0.24733700  0.88134100  1
  Sr  Sr4  1  0.43765200  0.53627400  0.16351800  1
  Nb  Nb5  1  0.50000000  0.50000000  0.75761200  1
  H  H6  1  0.62370200  0.24730600  0.63391400  1
  H  H7  1  0.37629700  0.75269400  0.88131000  1
  Nb  Nb8  1  1.00000000  0.50000000  0.75761300  1
  H  H9  1  0.86257200  0.72499700  0.84507000  1
  H  H10  1  0.13742800  0.27500300  0.67015500  1
  H  H11  1  0.10137400  0.81186600  0.01256000  1
  Nb  Nb12  1  0.00000000  0.00000000  0.75761300  1
  H  H13  1  0.87100500  0.24733800  0.88124300  1
  H  H14  1  0.12899500  0.75266200  0.63398200  1
  H  H15  1  0.12077200  0.59493300  0.31109700  1
  Sr  Sr16  1  0.06386400  0.23011500  0.15957200  1
  H  H17  1  0.75276800  0.21711000  0.21105600  1
  Sr  Sr18  1  0.75724000  0.87267500  0.17273300  1
  H  H19  1  0.38119700  0.96241600  0.30122300  1
