# generated using pymatgen
data_Sr2NbH9
_symmetry_space_group_name_H-M   'P 1'
_cell_length_a   5.85389900
_cell_length_b   5.86308107
_cell_length_c   5.87701262
_cell_angle_alpha   119.78910164
_cell_angle_beta   119.34866569
_cell_angle_gamma   90.34465151
_symmetry_Int_Tables_number   1
_chemical_formula_structural   Sr2NbH9
_chemical_formula_sum   'Sr2 Nb1 H9'
_cell_volume   144.04912289
_cell_formula_units_Z   1
loop_
 _symmetry_equiv_pos_site_id
 _symmetry_equiv_pos_as_xyz
  1  'x, y, z'
loop_
 _atom_site_type_symbol
 _atom_site_label
 _atom_site_symmetry_multiplicity
 _atom_site_fract_x
 _atom_site_fract_y
 _atom_site_fract_z
 _atom_site_occupancy
  Sr  Sr0  1  0.27942000  0.71467300  0.70795300  1
  H  H1  1  0.30443600  0.73844300  0.42143700  1
  H  H2  1  0.26220700  0.02640900  0.00009200  1
  H  H3  1  0.26905700  0.40272900  0.70862600  1
  H  H4  1  0.99878800  0.84047200  0.52810000  1
  H  H5  1  0.56856000  0.01968200  0.89358400  1
  H  H6  1  0.99166800  0.60398100  0.72437100  1
  H  H7  1  0.54349500  0.82900700  0.12666800  1
  H  H8  1  0.01538600  0.41011800  0.28658200  1
  H  H9  1  0.56009600  0.57218700  0.68568600  1
  Nb  Nb10  1  0.00778500  0.95443700  0.19230200  1
  Sr  Sr11  1  0.55306300  0.47106800  0.22333500  1
