# generated using pymatgen
data_Sr5NbH15
_symmetry_space_group_name_H-M   'P 1'
_cell_length_a   6.59931500
_cell_length_b   6.67119662
_cell_length_c   7.19993642
_cell_angle_alpha   67.73434042
_cell_angle_beta   79.04009847
_cell_angle_gamma   60.54632279
_symmetry_Int_Tables_number   1
_chemical_formula_structural   Sr5NbH15
_chemical_formula_sum   'Sr5 Nb1 H15'
_cell_volume   255.42800030
_cell_formula_units_Z   1
loop_
 _symmetry_equiv_pos_site_id
 _symmetry_equiv_pos_as_xyz
  1  'x, y, z'
loop_
 _atom_site_type_symbol
 _atom_site_label
 _atom_site_symmetry_multiplicity
 _atom_site_fract_x
 _atom_site_fract_y
 _atom_site_fract_z
 _atom_site_occupancy
  Sr  Sr0  1  0.22785600  0.64818100  0.68286000  1
  H  H1  1  0.27216700  0.49823700  0.95172400  1
  H  H2  1  0.96813900  0.94797100  0.59781400  1
  H  H3  1  0.19615200  0.85392800  0.81662800  1
  H  H4  1  0.31132400  0.88585800  0.50263100  1
  H  H5  1  0.96182800  0.63357400  0.82440100  1
  H  H6  1  0.26809000  0.32272100  0.76061600  1
  H  H7  1  0.52883300  0.57796800  0.75570300  1
  H  H8  1  0.02247500  0.66957800  0.50904700  1
  H  H9  1  0.47829900  0.46724800  0.52943100  1
  Sr  Sr10  1  0.24276000  0.12732500  0.14857100  1
  H  H11  1  0.24723200  0.78289000  0.18689400  1
  Sr  Sr12  1  0.93613600  0.76988500  0.13541000  1
  Sr  Sr13  1  0.56234800  0.46372600  0.13935600  1
  H  H14  1  0.87922800  0.40506700  0.28693500  1
  H  H15  1  0.61880300  0.03758400  0.27706100  1
  Nb  Nb16  1  0.93455600  0.31971100  0.63144900  1
  H  H17  1  0.89862600  0.18813400  0.98839800  1
  Sr  Sr18  1  0.56634800  0.98658100  0.62671700  1
  H  H19  1  0.25417300  0.33078900  0.36246100  1
  H  H20  1  0.58297900  0.86540700  0.98523000  1
