# generated using pymatgen
data_SrNb2H9
_symmetry_space_group_name_H-M   'P 1'
_cell_length_a   3.38927700
_cell_length_b   7.05285168
_cell_length_c   9.06657844
_cell_angle_alpha   89.23815686
_cell_angle_beta   88.37613924
_cell_angle_gamma   88.13758098
_symmetry_Int_Tables_number   1
_chemical_formula_structural   SrNb2H9
_chemical_formula_sum   'Sr1 Nb2 H9'
_cell_volume   216.51001664
_cell_formula_units_Z   1
loop_
 _symmetry_equiv_pos_site_id
 _symmetry_equiv_pos_as_xyz
  1  'x, y, z'
loop_
 _atom_site_type_symbol
 _atom_site_label
 _atom_site_symmetry_multiplicity
 _atom_site_fract_x
 _atom_site_fract_y
 _atom_site_fract_z
 _atom_site_occupancy
  H  H0  1  0.70508500  0.61363500  0.10956200  1
  Sr  Sr1  1  0.72980100  0.43682500  0.99167700  1
  H  H2  1  0.10826300  0.79071000  0.95071000  1
  H  H3  1  0.98304700  0.70322800  0.95182700  1
  H  H4  1  0.13510300  0.85714100  0.87124100  1
  H  H5  1  0.52092200  0.70576300  0.92538200  1
  H  H6  1  0.97628000  0.55679900  0.82026000  1
  H  H7  1  0.30767700  0.03678700  0.96853400  1
  H  H8  1  0.56008100  0.84310100  0.27699400  1
  Nb  Nb9  1  0.71943200  0.94171600  0.42533500  1
  H  H10  1  0.73476700  0.33542500  0.52970200  1
  Nb  Nb11  1  0.32990200  0.15656300  0.52756400  1
