# generated using pymatgen
data_Sr2NbH8
_symmetry_space_group_name_H-M   'P 1'
_cell_length_a   5.59139100
_cell_length_b   6.89361664
_cell_length_c   7.22376494
_cell_angle_alpha   66.59729131
_cell_angle_beta   77.59600873
_cell_angle_gamma   70.05526833
_symmetry_Int_Tables_number   1
_chemical_formula_structural   Sr2NbH8
_chemical_formula_sum   'Sr2 Nb1 H8'
_cell_volume   239.18999662
_cell_formula_units_Z   1
loop_
 _symmetry_equiv_pos_site_id
 _symmetry_equiv_pos_as_xyz
  1  'x, y, z'
loop_
 _atom_site_type_symbol
 _atom_site_label
 _atom_site_symmetry_multiplicity
 _atom_site_fract_x
 _atom_site_fract_y
 _atom_site_fract_z
 _atom_site_occupancy
  H  H0  1  0.17759700  0.58383400  0.18417900  1
  H  H1  1  0.29649700  0.79336100  0.03540600  1
  H  H2  1  0.69847400  0.07367500  0.45612300  1
  H  H3  1  0.57579300  0.06377200  0.23978000  1
  H  H4  1  0.73572300  0.71978400  0.85239400  1
  H  H5  1  0.97120800  0.78913500  0.89871200  1
  H  H6  1  0.93341200  0.43465000  0.85838800  1
  Sr  Sr7  1  0.94729800  0.25848200  0.10036600  1
  H  H8  1  0.07807900  0.93195000  0.61158000  1
  Nb  Nb9  1  0.45603700  0.98119300  0.72878200  1
  Sr  Sr10  1  0.38744000  0.60039800  0.82723900  1
