# generated using pymatgen
data_Sr(NbH3)5
_symmetry_space_group_name_H-M   'P 1'
_cell_length_a   4.50148100
_cell_length_b   5.46491724
_cell_length_c   7.20427188
_cell_angle_alpha   93.16620624
_cell_angle_beta   89.61990607
_cell_angle_gamma   89.93756604
_symmetry_Int_Tables_number   1
_chemical_formula_structural   Sr(NbH3)5
_chemical_formula_sum   'Sr1 Nb5 H15'
_cell_volume   176.95206545
_cell_formula_units_Z   1
loop_
 _symmetry_equiv_pos_site_id
 _symmetry_equiv_pos_as_xyz
  1  'x, y, z'
loop_
 _atom_site_type_symbol
 _atom_site_label
 _atom_site_symmetry_multiplicity
 _atom_site_fract_x
 _atom_site_fract_y
 _atom_site_fract_z
 _atom_site_occupancy
  H  H0  1  0.95127100  0.69749900  0.72396200  1
  H  H1  1  0.82346400  0.92037500  0.76984900  1
  H  H2  1  0.95127100  0.19749900  0.72396200  1
  Nb  Nb3  1  0.52049500  0.23330200  0.58302400  1
  H  H4  1  0.58636700  0.01581000  0.44998300  1
  H  H5  1  0.44742700  0.44825900  0.72532800  1
  Nb  Nb6  1  0.15514000  0.05156000  0.31043100  1
  H  H7  1  0.08510400  0.26743900  0.45136300  1
  H  H8  1  0.28365100  0.11716300  0.04772900  1
  H  H9  1  0.16270200  0.98860100  0.97551400  1
  Nb  Nb10  1  0.15514000  0.55156000  0.31043100  1
  H  H11  1  0.21566600  0.33131900  0.18971400  1
  Nb  Nb12  1  0.40672900  0.87030600  0.14726300  1
  H  H13  1  0.57734100  0.98283100  0.98170800  1
  H  H14  1  0.28365100  0.61716300  0.04772900  1
  H  H15  1  0.71458800  0.08160400  0.19072500  1
  Nb  Nb16  1  0.52049500  0.73330200  0.58302400  1
  H  H17  1  0.58636700  0.51581000  0.44998300  1
  H  H18  1  0.31140400  0.89175500  0.75488200  1
  Sr  Sr19  1  0.83158300  0.38953700  0.95561700  1
  H  H20  1  0.71458800  0.58160400  0.19072500  1
