# generated using pymatgen
data_SrNbH21
_symmetry_space_group_name_H-M   'P 1'
_cell_length_a   4.93323700
_cell_length_b   5.72193700
_cell_length_c   6.37107844
_cell_angle_alpha   91.06657934
_cell_angle_beta   101.17178972
_cell_angle_gamma   94.06191405
_symmetry_Int_Tables_number   1
_chemical_formula_structural   SrNbH21
_chemical_formula_sum   'Sr1 Nb1 H21'
_cell_volume   175.89354273
_cell_formula_units_Z   1
loop_
 _symmetry_equiv_pos_site_id
 _symmetry_equiv_pos_as_xyz
  1  'x, y, z'
loop_
 _atom_site_type_symbol
 _atom_site_label
 _atom_site_symmetry_multiplicity
 _atom_site_fract_x
 _atom_site_fract_y
 _atom_site_fract_z
 _atom_site_occupancy
  H  H0  1  0.94344200  0.33528800  0.65093300  1
  H  H1  1  0.01070300  0.29931100  0.55179300  1
  H  H2  1  0.38966000  0.48018700  0.57842400  1
  H  H3  1  0.40103500  0.55338700  0.66196000  1
  H  H4  1  0.71619600  0.68692200  0.82083300  1
  H  H5  1  0.84576600  0.70614300  0.75209800  1
  H  H6  1  0.89422700  0.66850300  0.92189700  1
  H  H7  1  0.04923100  0.96647700  0.42825700  1
  H  H8  1  0.06519100  0.86555200  0.50310200  1
  H  H9  1  0.39518000  0.99635300  0.05592700  1
  H  H10  1  0.37526600  0.96522400  0.95265700  1
  H  H11  1  0.15562900  0.88842300  0.77978800  1
  Nb  Nb12  1  0.46193900  0.27467200  0.12589900  1
  H  H13  1  0.69879400  0.29428700  0.31863600  1
  H  H14  1  0.51036000  0.08967800  0.55148100  1
  H  H15  1  0.53208700  0.01225600  0.64086100  1
  H  H16  1  0.29426900  0.14419900  0.32797000  1
  H  H17  1  0.62038600  0.20911200  0.85835200  1
  H  H18  1  0.51623200  0.56475700  0.03131900  1
  H  H19  1  0.01960300  0.38412900  0.00894500  1
  H  H20  1  0.82005800  0.01517000  0.15656400  1
  H  H21  1  0.22203600  0.52916300  0.28475200  1
  Sr  Sr22  1  0.64906800  0.71569000  0.32326500  1
