# generated using pymatgen
data_SrNb2H17
_symmetry_space_group_name_H-M   'P 1'
_cell_length_a   4.05315000
_cell_length_b   5.64806362
_cell_length_c   7.01544117
_cell_angle_alpha   86.08776035
_cell_angle_beta   88.48542356
_cell_angle_gamma   82.57367582
_symmetry_Int_Tables_number   1
_chemical_formula_structural   SrNb2H17
_chemical_formula_sum   'Sr1 Nb2 H17'
_cell_volume   158.85720754
_cell_formula_units_Z   1
loop_
 _symmetry_equiv_pos_site_id
 _symmetry_equiv_pos_as_xyz
  1  'x, y, z'
loop_
 _atom_site_type_symbol
 _atom_site_label
 _atom_site_symmetry_multiplicity
 _atom_site_fract_x
 _atom_site_fract_y
 _atom_site_fract_z
 _atom_site_occupancy
  H  H0  1  0.73889900  0.01996900  0.09835400  1
  H  H1  1  0.59810800  0.15489300  0.14220900  1
  Nb  Nb2  1  0.50318600  0.33231200  0.86761300  1
  H  H3  1  0.72395000  0.32261200  0.70444900  1
  H  H4  1  0.23293900  0.19030000  0.89639300  1
  H  H5  1  0.90964200  0.21856200  0.00497000  1
  Nb  Nb6  1  0.82272100  0.32019500  0.23043800  1
  H  H7  1  0.56639000  0.33546700  0.36580900  1
  H  H8  1  0.08884000  0.48806000  0.19152100  1
  H  H9  1  0.92939600  0.64017600  0.18541900  1
  H  H10  1  0.59890500  0.67423000  0.27776300  1
  H  H11  1  0.03896100  0.26376000  0.49306800  1
  H  H12  1  0.88477100  0.24992300  0.50156400  1
  H  H13  1  0.30421500  0.35052200  0.62791700  1
  H  H14  1  0.74346200  0.94716300  0.86279500  1
  H  H15  1  0.48609600  0.61144400  0.00685300  1
  H  H16  1  0.10461300  0.56330400  0.85800900  1
  H  H17  1  0.32607000  0.70694300  0.69981300  1
  Sr  Sr18  1  0.69630200  0.82403800  0.56967700  1
  H  H19  1  0.98364300  0.93411900  0.36547600  1
