# generated using pymatgen
data_Sr(NbH7)2
_symmetry_space_group_name_H-M   'P 1'
_cell_length_a   4.10907800
_cell_length_b   5.25822089
_cell_length_c   6.90926764
_cell_angle_alpha   78.69654732
_cell_angle_beta   76.48704951
_cell_angle_gamma   78.87780225
_symmetry_Int_Tables_number   1
_chemical_formula_structural   Sr(NbH7)2
_chemical_formula_sum   'Sr1 Nb2 H14'
_cell_volume   140.63226490
_cell_formula_units_Z   1
loop_
 _symmetry_equiv_pos_site_id
 _symmetry_equiv_pos_as_xyz
  1  'x, y, z'
loop_
 _atom_site_type_symbol
 _atom_site_label
 _atom_site_symmetry_multiplicity
 _atom_site_fract_x
 _atom_site_fract_y
 _atom_site_fract_z
 _atom_site_occupancy
  H  H0  1  0.53350700  0.07026900  0.52415600  1
  H  H1  1  0.63103200  0.11988700  0.62194200  1
  H  H2  1  0.99871000  0.23825800  0.57918500  1
  H  H3  1  0.97196400  0.18649100  0.74591200  1
  Nb  Nb4  1  0.74791800  0.05007300  0.03224700  1
  H  H5  1  0.64056200  0.89496900  0.26722500  1
  H  H6  1  0.68790300  0.23935900  0.21832100  1
  H  H7  1  0.77306300  0.71180700  0.04329000  1
  H  H8  1  0.54407100  0.54800500  0.49485800  1
  Nb  Nb9  1  0.59331200  0.46949200  0.68036400  1
  H  H10  1  0.82718900  0.68702600  0.69885000  1
  H  H11  1  0.24559700  0.19300900  0.11156400  1
  H  H12  1  0.35749800  0.27950900  0.88364900  1
  H  H13  1  0.63262700  0.41560400  0.97881200  1
  H  H14  1  0.26929700  0.86472900  0.05830300  1
  H  H15  1  0.24147000  0.76713500  0.79899800  1
  Sr  Sr16  1  0.14966200  0.54032100  0.28147800  1
