# generated using pymatgen
data_Sr5NbH14
_symmetry_space_group_name_H-M   'P 1'
_cell_length_a   5.76900100
_cell_length_b   6.43453256
_cell_length_c   7.63290310
_cell_angle_alpha   84.39411076
_cell_angle_beta   82.41867608
_cell_angle_gamma   64.96995130
_symmetry_Int_Tables_number   1
_chemical_formula_structural   Sr5NbH14
_chemical_formula_sum   'Sr5 Nb1 H14'
_cell_volume   254.20931694
_cell_formula_units_Z   1
loop_
 _symmetry_equiv_pos_site_id
 _symmetry_equiv_pos_as_xyz
  1  'x, y, z'
loop_
 _atom_site_type_symbol
 _atom_site_label
 _atom_site_symmetry_multiplicity
 _atom_site_fract_x
 _atom_site_fract_y
 _atom_site_fract_z
 _atom_site_occupancy
  Nb  Nb0  1  0.28115800  0.34104600  0.16037000  1
  H  H1  1  0.31875000  0.47626600  0.98465800  1
  H  H2  1  0.13737600  0.15579900  0.21221600  1
  H  H3  1  0.41331700  0.26600000  0.37088200  1
  H  H4  1  0.14244700  0.21120000  0.97341600  1
  H  H5  1  0.58601700  0.37312500  0.17907500  1
  H  H6  1  0.93280600  0.55613400  0.18557300  1
  H  H7  1  0.02268500  0.79820400  0.92537500  1
  H  H8  1  0.69753100  0.73811000  0.51471700  1
  H  H9  1  0.48519600  0.90765000  0.54071100  1
  Sr  Sr10  1  0.42215800  0.08179300  0.74569600  1
  H  H11  1  0.47922600  0.64362600  0.70885600  1
  H  H12  1  0.77591400  0.13329600  0.67804400  1
  H  H13  1  0.87800000  0.93656100  0.56871000  1
  Sr  Sr14  1  0.10191400  0.69474500  0.57371800  1
  Sr  Sr15  1  0.81807400  0.29318000  0.43805200  1
  H  H16  1  0.02524000  0.42160400  0.69250100  1
  Sr  Sr17  1  0.75006800  0.47952600  0.91394300  1
  Sr  Sr18  1  0.47390900  0.82778100  0.27998900  1
  H  H19  1  0.19958700  0.66162800  0.29243800  1
