# generated using pymatgen
data_SrNbH8
_symmetry_space_group_name_H-M   'P 1'
_cell_length_a   3.96835100
_cell_length_b   4.06805194
_cell_length_c   6.38637995
_cell_angle_alpha   101.42101192
_cell_angle_beta   99.98548596
_cell_angle_gamma   100.67112737
_symmetry_Int_Tables_number   1
_chemical_formula_structural   SrNbH8
_chemical_formula_sum   'Sr1 Nb1 H8'
_cell_volume   96.91881713
_cell_formula_units_Z   1
loop_
 _symmetry_equiv_pos_site_id
 _symmetry_equiv_pos_as_xyz
  1  'x, y, z'
loop_
 _atom_site_type_symbol
 _atom_site_label
 _atom_site_symmetry_multiplicity
 _atom_site_fract_x
 _atom_site_fract_y
 _atom_site_fract_z
 _atom_site_occupancy
  H  H0  1  0.09708500  0.22621800  0.35536900  1
  H  H1  1  0.96939200  0.09818000  0.11658400  1
  Nb  Nb2  1  0.21629000  0.34531000  0.60096800  1
  H  H3  1  0.78241000  0.41335200  0.73597700  1
  H  H4  1  0.65603400  0.27966900  0.47834800  1
  H  H5  1  0.91496200  0.53958800  0.99383400  1
  H  H6  1  0.41031000  0.04472700  0.99362800  1
  H  H7  1  0.43660400  0.99122300  0.77021300  1
  H  H8  1  0.15183400  0.78507300  0.47817800  1
  Sr  Sr9  1  0.53343000  0.66254100  0.23613100  1
