# generated using pymatgen
data_SrNb4H17
_symmetry_space_group_name_H-M   'P 1'
_cell_length_a   3.88699700
_cell_length_b   6.14959962
_cell_length_c   7.26399554
_cell_angle_alpha   90.53403296
_cell_angle_beta   93.02829936
_cell_angle_gamma   90.07747082
_symmetry_Int_Tables_number   1
_chemical_formula_structural   SrNb4H17
_chemical_formula_sum   'Sr1 Nb4 H17'
_cell_volume   173.38444046
_cell_formula_units_Z   1
loop_
 _symmetry_equiv_pos_site_id
 _symmetry_equiv_pos_as_xyz
  1  'x, y, z'
loop_
 _atom_site_type_symbol
 _atom_site_label
 _atom_site_symmetry_multiplicity
 _atom_site_fract_x
 _atom_site_fract_y
 _atom_site_fract_z
 _atom_site_occupancy
  H  H0  1  0.02341500  0.83729800  0.97551400  1
  H  H1  1  0.57955500  0.82497400  0.98410400  1
  H  H2  1  0.57344400  0.44241900  0.99139500  1
  H  H3  1  0.01764600  0.42265900  0.98170800  1
  H  H4  1  0.16654300  0.32977000  0.29604700  1
  H  H5  1  0.98548600  0.46692600  0.28556800  1
  H  H6  1  0.28076700  0.59279600  0.14655200  1
  H  H7  1  0.15669000  0.79478400  0.28816400  1
  H  H8  1  0.70854600  0.14294400  0.92448400  1
  H  H9  1  0.78561500  0.10030300  0.81745600  1
  Nb  Nb10  1  0.72755100  0.87671100  0.72605100  1
  H  H11  1  0.41513900  0.68331100  0.74982500  1
  Nb  Nb12  1  0.06641100  0.25541800  0.53125700  1
  H  H13  1  0.88733200  0.03238100  0.54672500  1
  H  H14  1  0.48871200  0.22057200  0.57018400  1
  Nb  Nb15  1  0.04775100  0.75450800  0.52132000  1
  H  H16  1  0.84844700  0.53516300  0.55610000  1
  Nb  Nb17  1  0.71830100  0.37757400  0.72865000  1
  H  H18  1  0.28856600  0.34092600  0.77659800  1
  H  H19  1  0.25197900  0.96589600  0.69010100  1
  H  H20  1  0.31692900  0.51608600  0.50627700  1
  Sr  Sr21  1  0.38159900  0.09558800  0.13885900  1
