# generated using pymatgen
data_SrNbH9
_symmetry_space_group_name_H-M   'P 1'
_cell_length_a   5.66857700
_cell_length_b   5.86750888
_cell_length_c   7.35998320
_cell_angle_alpha   66.75948778
_cell_angle_beta   76.76531528
_cell_angle_gamma   66.82004238
_symmetry_Int_Tables_number   1
_chemical_formula_structural   SrNbH9
_chemical_formula_sum   'Sr2 Nb2 H18'
_cell_volume   205.98757561
_cell_formula_units_Z   2
loop_
 _symmetry_equiv_pos_site_id
 _symmetry_equiv_pos_as_xyz
  1  'x, y, z'
loop_
 _atom_site_type_symbol
 _atom_site_label
 _atom_site_symmetry_multiplicity
 _atom_site_fract_x
 _atom_site_fract_y
 _atom_site_fract_z
 _atom_site_occupancy
  H  H0  1  0.46840500  0.19228700  0.46046100  1
  H  H1  1  0.76008500  0.95619700  0.54061800  1
  H  H2  1  0.50775200  0.90833800  0.40106500  1
  H  H3  1  0.04740400  0.22914300  0.08728700  1
  H  H4  1  0.04713300  0.25509400  0.00810400  1
  H  H5  1  0.84664700  0.23903100  0.12557600  1
  Nb  Nb6  1  0.85812900  0.47049100  0.85610200  1
  H  H7  1  0.00339800  0.06404200  0.31110500  1
  H  H8  1  0.55290100  0.47260800  0.04654600  1
  H  H9  1  0.63435700  0.66116100  0.66824200  1
  H  H10  1  0.80594600  0.52272300  0.18608000  1
  H  H11  1  0.04740400  0.22914300  0.58728700  1
  H  H12  1  0.04713300  0.25509400  0.50810400  1
  H  H13  1  0.80822400  0.29572000  0.70213800  1
  H  H14  1  0.00339800  0.06404200  0.81110500  1
  Nb  Nb15  1  0.45384200  0.96202500  0.73083200  1
  H  H16  1  0.23597300  0.86812100  0.70482800  1
  H  H17  1  0.67458500  0.76988300  0.92251600  1
  H  H18  1  0.26669400  0.89097000  0.10168700  1
  Sr  Sr19  1  0.86981300  0.91036600  0.06893200  1
  H  H20  1  0.50745700  0.13478000  0.88401500  1
  Sr  Sr21  1  0.44242300  0.52200500  0.51716000  1
