# generated using pymatgen
data_SrNbH23
_symmetry_space_group_name_H-M   'P 1'
_cell_length_a   4.18448100
_cell_length_b   5.84670601
_cell_length_c   7.69692790
_cell_angle_alpha   92.60563054
_cell_angle_beta   91.43529740
_cell_angle_gamma   90.56573424
_symmetry_Int_Tables_number   1
_chemical_formula_structural   SrNbH23
_chemical_formula_sum   'Sr1 Nb1 H23'
_cell_volume   188.04350601
_cell_formula_units_Z   1
loop_
 _symmetry_equiv_pos_site_id
 _symmetry_equiv_pos_as_xyz
  1  'x, y, z'
loop_
 _atom_site_type_symbol
 _atom_site_label
 _atom_site_symmetry_multiplicity
 _atom_site_fract_x
 _atom_site_fract_y
 _atom_site_fract_z
 _atom_site_occupancy
  H  H0  1  0.29602700  0.87209700  0.67025100  1
  H  H1  1  0.27361500  0.93582800  0.60167200  1
  H  H2  1  0.31514300  0.07361800  0.35082500  1
  H  H3  1  0.30848500  0.97512200  0.39733700  1
  H  H4  1  0.29527300  0.85060000  0.89405600  1
  H  H5  1  0.82432500  0.31174700  0.35556800  1
  H  H6  1  0.79859400  0.27572300  0.26906700  1
  H  H7  1  0.77528000  0.70590700  0.54177400  1
  H  H8  1  0.80251900  0.70151300  0.45583800  1
  H  H9  1  0.30398600  0.40131400  0.54890900  1
  H  H10  1  0.24120900  0.49675900  0.61544700  1
  H  H11  1  0.29659200  0.57750400  0.26166000  1
  H  H12  1  0.30206800  0.57046100  0.34694200  1
  H  H13  1  0.42707700  0.54966700  0.06303900  1
  H  H14  1  0.49332100  0.44337100  0.05537100  1
  H  H15  1  0.78195900  0.24059800  0.61202800  1
  H  H16  1  0.77948400  0.10992100  0.61593800  1
  H  H17  1  0.87194600  0.88160100  0.20524400  1
  H  H18  1  0.73090800  0.77398200  0.20853400  1
  H  H19  1  0.92707700  0.54966700  0.06303900  1
  H  H20  1  0.99332100  0.44337100  0.05537100  1
  Nb  Nb21  1  0.75832300  0.77185000  0.97605600  1
  H  H22  1  0.78869600  0.92540700  0.80670900  1
  H  H23  1  0.77765200  0.54640100  0.79383700  1
  Sr  Sr24  1  0.28313900  0.25343900  0.87585900  1
