# generated using pymatgen
data_SrNbH9
_symmetry_space_group_name_H-M   'P 1'
_cell_length_a   4.80229900
_cell_length_b   5.07621718
_cell_length_c   5.12572409
_cell_angle_alpha   65.11865276
_cell_angle_beta   89.15618057
_cell_angle_gamma   67.36485232
_symmetry_Int_Tables_number   1
_chemical_formula_structural   SrNbH9
_chemical_formula_sum   'Sr1 Nb1 H9'
_cell_volume   102.99379309
_cell_formula_units_Z   1
loop_
 _symmetry_equiv_pos_site_id
 _symmetry_equiv_pos_as_xyz
  1  'x, y, z'
loop_
 _atom_site_type_symbol
 _atom_site_label
 _atom_site_symmetry_multiplicity
 _atom_site_fract_x
 _atom_site_fract_y
 _atom_site_fract_z
 _atom_site_occupancy
  H  H0  1  0.24719100  0.37725000  0.67948300  1
  H  H1  1  0.07736900  0.49017900  0.69781600  1
  H  H2  1  0.94357400  0.73613000  0.81714900  1
  Nb  Nb3  1  0.31217600  0.69474400  0.75359600  1
  H  H4  1  0.63988000  0.51316100  0.03057700  1
  H  H5  1  0.28993100  0.78796700  0.37368500  1
  H  H6  1  0.30014400  0.38603300  0.09469800  1
  H  H7  1  0.50689000  0.95783300  0.61977600  1
  H  H8  1  0.07548100  0.12474700  0.44819900  1
  H  H9  1  0.63308500  0.38276400  0.71083200  1
  Sr  Sr10  1  0.71672700  0.89506200  0.16497100  1
