# generated using pymatgen
data_Sr2(NbH5)3
_symmetry_space_group_name_H-M   'P 1'
_cell_length_a   4.76365100
_cell_length_b   6.53008003
_cell_length_c   6.95102035
_cell_angle_alpha   68.50819162
_cell_angle_beta   71.06300749
_cell_angle_gamma   89.81233854
_symmetry_Int_Tables_number   1
_chemical_formula_structural   Sr2(NbH5)3
_chemical_formula_sum   'Sr2 Nb3 H15'
_cell_volume   188.65278160
_cell_formula_units_Z   1
loop_
 _symmetry_equiv_pos_site_id
 _symmetry_equiv_pos_as_xyz
  1  'x, y, z'
loop_
 _atom_site_type_symbol
 _atom_site_label
 _atom_site_symmetry_multiplicity
 _atom_site_fract_x
 _atom_site_fract_y
 _atom_site_fract_z
 _atom_site_occupancy
  H  H0  1  0.12520800  0.39239400  0.33153700  1
  H  H1  1  0.16152600  0.57218700  0.19202000  1
  H  H2  1  0.62117700  0.63969200  0.33136800  1
  H  H3  1  0.76863900  0.60398100  0.15333600  1
  Nb  Nb4  1  0.46447000  0.71467300  0.16975300  1
  H  H5  1  0.47550500  0.40272900  0.16908100  1
  H  H6  1  0.05714800  0.11296700  0.45434700  1
  H  H7  1  0.94605600  0.04894700  0.69313200  1
  Nb  Nb8  1  0.81980100  0.98954300  0.93867400  1
  H  H9  1  0.87773600  0.76965200  0.81588200  1
  H  H10  1  0.05714800  0.61296700  0.45434700  1
  H  H11  1  0.94605600  0.54894700  0.69313200  1
  Nb  Nb12  1  0.81980100  0.48954300  0.93867400  1
  H  H13  1  0.87773600  0.26965200  0.81588200  1
  H  H14  1  0.12520800  0.89239400  0.33153700  1
  H  H15  1  0.62117700  0.13969200  0.33136800  1
  Sr  Sr16  1  0.50156400  0.33112800  0.57358500  1
  Sr  Sr17  1  0.50156400  0.83112800  0.57358500  1
  H  H18  1  0.38218100  0.52222100  0.81608800  1
  H  H19  1  0.38218100  0.02222100  0.81608800  1
