# generated using pymatgen
data_SrNb5H19
_symmetry_space_group_name_H-M   'P 1'
_cell_length_a   3.53854100
_cell_length_b   6.97494224
_cell_length_c   8.11230705
_cell_angle_alpha   102.11669437
_cell_angle_beta   93.47570482
_cell_angle_gamma   90.66954764
_symmetry_Int_Tables_number   1
_chemical_formula_structural   SrNb5H19
_chemical_formula_sum   'Sr1 Nb5 H19'
_cell_volume   195.33910132
_cell_formula_units_Z   1
loop_
 _symmetry_equiv_pos_site_id
 _symmetry_equiv_pos_as_xyz
  1  'x, y, z'
loop_
 _atom_site_type_symbol
 _atom_site_label
 _atom_site_symmetry_multiplicity
 _atom_site_fract_x
 _atom_site_fract_y
 _atom_site_fract_z
 _atom_site_occupancy
  Nb  Nb0  1  0.46372500  0.76777200  0.28712900  1
  H  H1  1  0.99416900  0.80135500  0.40379000  1
  H  H2  1  0.54260400  0.83577300  0.54576700  1
  H  H3  1  0.47981100  0.06281800  0.42627900  1
  H  H4  1  0.00428100  0.33183800  0.39129000  1
  H  H5  1  0.96032700  0.12057100  0.23104000  1
  H  H6  1  0.39845000  0.91837100  0.86544400  1
  H  H7  1  0.53793200  0.97100200  0.93864600  1
  Nb  Nb8  1  0.91218200  0.95651400  0.00493000  1
  H  H9  1  0.44797200  0.97586100  0.13438100  1
  H  H10  1  0.08992100  0.14547900  0.90844000  1
  H  H11  1  0.08807900  0.25848800  0.92652800  1
  H  H12  1  0.32167300  0.33026200  0.88631400  1
  H  H13  1  0.52908000  0.49008000  0.92803100  1
  Nb  Nb14  1  0.85988600  0.43428900  0.00529100  1
  H  H15  1  0.96171700  0.98417800  0.75680000  1
  H  H16  1  0.67779500  0.39497200  0.74309700  1
  H  H17  1  0.79837300  0.67161100  0.88507200  1
  H  H18  1  0.39502900  0.48649300  0.13984800  1
  Nb  Nb19  1  0.48888600  0.12395500  0.69717900  1
  Nb  Nb20  1  0.47048700  0.26704500  0.27480100  1
  H  H21  1  0.96436600  0.19178200  0.59861400  1
  H  H22  1  0.53422000  0.54114800  0.41290100  1
  H  H23  1  0.92237500  0.72545300  0.14110000  1
  Sr  Sr24  1  0.11722700  0.59364100  0.63443200  1
