# generated using pymatgen
data_SrNb2H7
_symmetry_space_group_name_H-M   'P 1'
_cell_length_a   3.57904100
_cell_length_b   5.38994610
_cell_length_c   9.83573902
_cell_angle_alpha   85.46478818
_cell_angle_beta   86.39359214
_cell_angle_gamma   88.52700258
_symmetry_Int_Tables_number   1
_chemical_formula_structural   SrNb2H7
_chemical_formula_sum   'Sr1 Nb2 H7'
_cell_volume   188.73000495
_cell_formula_units_Z   1
loop_
 _symmetry_equiv_pos_site_id
 _symmetry_equiv_pos_as_xyz
  1  'x, y, z'
loop_
 _atom_site_type_symbol
 _atom_site_label
 _atom_site_symmetry_multiplicity
 _atom_site_fract_x
 _atom_site_fract_y
 _atom_site_fract_z
 _atom_site_occupancy
  H  H0  1  0.06777200  0.22242000  0.67505200  1
  Nb  Nb1  1  0.10926700  0.02548400  0.82243600  1
  H  H2  1  0.64868900  0.95367500  0.73027800  1
  H  H3  1  0.85146900  0.17819800  0.46934800  1
  Nb  Nb4  1  0.15223200  0.18131000  0.35076600  1
  H  H5  1  0.02863900  0.52650800  0.21042800  1
  H  H6  1  0.69098000  0.73973000  0.27407900  1
  H  H7  1  0.75485400  0.48348100  0.04006100  1
  Sr  Sr8  1  0.54554600  0.41491900  0.15539600  1
  H  H9  1  0.28515100  0.14761400  0.13058600  1
