# generated using pymatgen
data_SrNbH19
_symmetry_space_group_name_H-M   'P 1'
_cell_length_a   4.98956500
_cell_length_b   5.65930303
_cell_length_c   6.82389296
_cell_angle_alpha   107.55686572
_cell_angle_beta   105.65616506
_cell_angle_gamma   105.42552435
_symmetry_Int_Tables_number   1
_chemical_formula_structural   SrNbH19
_chemical_formula_sum   'Sr1 Nb1 H19'
_cell_volume   163.74359798
_cell_formula_units_Z   1
loop_
 _symmetry_equiv_pos_site_id
 _symmetry_equiv_pos_as_xyz
  1  'x, y, z'
loop_
 _atom_site_type_symbol
 _atom_site_label
 _atom_site_symmetry_multiplicity
 _atom_site_fract_x
 _atom_site_fract_y
 _atom_site_fract_z
 _atom_site_occupancy
  H  H0  1  0.58657600  0.90366000  0.96597700  1
  H  H1  1  0.52091600  0.97027400  0.89752600  1
  H  H2  1  0.40201000  0.43477900  0.10194000  1
  H  H3  1  0.52651900  0.54179700  0.10063300  1
  H  H4  1  0.24275900  0.81763500  0.18549400  1
  H  H5  1  0.38829600  0.94166000  0.21146600  1
  H  H6  1  0.53646800  0.27539000  0.37669900  1
  H  H7  1  0.08562200  0.25910200  0.26033100  1
  H  H8  1  0.00655300  0.27628900  0.35869000  1
  H  H9  1  0.96081000  0.18676700  0.51506500  1
  H  H10  1  0.10539700  0.06691500  0.90284100  1
  H  H11  1  0.01820200  0.01330300  0.96481000  1
  H  H12  1  0.23711700  0.11974400  0.70894600  1
  Nb  Nb13  1  0.24941000  0.09660300  0.44828600  1
  H  H14  1  0.60041300  0.12395800  0.63300300  1
  H  H15  1  0.41314700  0.43676800  0.65486400  1
  H  H16  1  0.87545500  0.85431700  0.25222600  1
  H  H17  1  0.19281200  0.77001400  0.46519200  1
  H  H18  1  0.83189700  0.35923100  0.95065000  1
  H  H19  1  0.10058000  0.57927700  0.74736500  1
  Sr  Sr20  1  0.70782800  0.74442100  0.54235100  1
