# generated using pymatgen
data_Sr6NbH16
_symmetry_space_group_name_H-M   'P 1'
_cell_length_a   6.95339000
_cell_length_b   7.22451302
_cell_length_c   7.31842685
_cell_angle_alpha   102.98419151
_cell_angle_beta   117.50585682
_cell_angle_gamma   99.19899797
_symmetry_Int_Tables_number   1
_chemical_formula_structural   Sr6NbH16
_chemical_formula_sum   'Sr6 Nb1 H16'
_cell_volume   302.60348625
_cell_formula_units_Z   1
loop_
 _symmetry_equiv_pos_site_id
 _symmetry_equiv_pos_as_xyz
  1  'x, y, z'
loop_
 _atom_site_type_symbol
 _atom_site_label
 _atom_site_symmetry_multiplicity
 _atom_site_fract_x
 _atom_site_fract_y
 _atom_site_fract_z
 _atom_site_occupancy
  Sr  Sr0  1  0.12738900  0.96478600  0.29068600  1
  H  H1  1  0.04370300  0.20409600  0.48991900  1
  H  H2  1  0.47371300  0.27967200  0.49138400  1
  H  H3  1  0.28527300  0.14392300  0.13333100  1
  Sr  Sr4  1  0.07875900  0.05991900  0.76753000  1
  Sr  Sr5  1  0.08877700  0.54197800  0.67819600  1
  H  H6  1  0.86354500  0.28290400  0.70028200  1
  Sr  Sr7  1  0.63827000  0.07810500  0.30018100  1
  H  H8  1  0.55442500  0.87351900  0.76868000  1
  H  H9  1  0.24484500  0.79684700  0.56304200  1
  Nb  Nb10  1  0.70210700  0.79622800  0.01175000  1
  H  H11  1  0.43811300  0.08777900  0.74406700  1
  H  H12  1  0.43405800  0.59613100  0.65465100  1
  H  H13  1  0.38529500  0.86817500  0.90869400  1
  H  H14  1  0.52070900  0.88307800  0.49556900  1
  H  H15  1  0.81812200  0.09962500  0.97915700  1
  H  H16  1  0.78868600  0.76796500  0.75193300  1
  Sr  Sr17  1  0.68949100  0.42114700  0.89475400  1
  H  H18  1  0.75731500  0.40686200  0.29090500  1
  H  H19  1  0.34609600  0.40193400  0.92149500  1
  Sr  Sr20  1  0.45272500  0.52401000  0.30467800  1
  H  H21  1  0.83240600  0.81172300  0.39272200  1
  H  H22  1  0.11735000  0.63478500  0.06691900  1
