# generated using pymatgen
data_SrNbH16
_symmetry_space_group_name_H-M   'P 1'
_cell_length_a   4.43729900
_cell_length_b   5.10190760
_cell_length_c   6.50981546
_cell_angle_alpha   83.04477005
_cell_angle_beta   88.48493642
_cell_angle_gamma   84.17411466
_symmetry_Int_Tables_number   1
_chemical_formula_structural   SrNbH16
_chemical_formula_sum   'Sr1 Nb1 H16'
_cell_volume   145.51865141
_cell_formula_units_Z   1
loop_
 _symmetry_equiv_pos_site_id
 _symmetry_equiv_pos_as_xyz
  1  'x, y, z'
loop_
 _atom_site_type_symbol
 _atom_site_label
 _atom_site_symmetry_multiplicity
 _atom_site_fract_x
 _atom_site_fract_y
 _atom_site_fract_z
 _atom_site_occupancy
  H  H0  1  0.77281700  0.04785200  0.08308600  1
  H  H1  1  0.84677800  0.91699500  0.13556100  1
  H  H2  1  0.10907100  0.39654800  0.92063700  1
  H  H3  1  0.25952600  0.41947300  0.98672800  1
  H  H4  1  0.54192800  0.78225300  0.90114700  1
  H  H5  1  0.70243100  0.73930800  0.83745700  1
  H  H6  1  0.28498600  0.01491700  0.13448300  1
  H  H7  1  0.33230300  0.93525800  0.23783400  1
  H  H8  1  0.77656900  0.44450300  0.12904300  1
  H  H9  1  0.70945900  0.50135800  0.22661700  1
  H  H10  1  0.56358800  0.52088000  0.45827200  1
  Sr  Sr11  1  0.36917000  0.57928400  0.69889800  1
  H  H12  1  0.31289300  0.24778100  0.65061100  1
  H  H13  1  0.42690100  0.88249800  0.52526500  1
  H  H14  1  0.08880100  0.60903400  0.48729900  1
  H  H15  1  0.11342800  0.85003900  0.79868000  1
  H  H16  1  0.66006900  0.31530900  0.81756200  1
  Nb  Nb17  1  0.88799600  0.11538700  0.50055900  1
