# generated using pymatgen
data_Sr2Nb3H19
_symmetry_space_group_name_H-M   'P 1'
_cell_length_a   5.47535300
_cell_length_b   5.68876661
_cell_length_c   7.55873265
_cell_angle_alpha   76.41889751
_cell_angle_beta   78.20247785
_cell_angle_gamma   76.00683209
_symmetry_Int_Tables_number   1
_chemical_formula_structural   Sr2Nb3H19
_chemical_formula_sum   'Sr2 Nb3 H19'
_cell_volume   219.32616585
_cell_formula_units_Z   1
loop_
 _symmetry_equiv_pos_site_id
 _symmetry_equiv_pos_as_xyz
  1  'x, y, z'
loop_
 _atom_site_type_symbol
 _atom_site_label
 _atom_site_symmetry_multiplicity
 _atom_site_fract_x
 _atom_site_fract_y
 _atom_site_fract_z
 _atom_site_occupancy
  H  H0  1  0.79328700  0.18033500  0.39587800  1
  H  H1  1  0.97359100  0.97741100  0.36889700  1
  H  H2  1  0.98031800  0.87090300  0.21572000  1
  H  H3  1  0.49579800  0.29429500  0.43806000  1
  H  H4  1  0.05670900  0.54709400  0.23510700  1
  Sr  Sr5  1  0.14021000  0.30538000  0.43792700  1
  Nb  Nb6  1  0.28532700  0.68527300  0.86029000  1
  H  H7  1  0.42781300  0.66300600  0.71995200  1
  H  H8  1  0.59727100  0.68594500  0.86547200  1
  H  H9  1  0.39601900  0.70169000  0.00416600  1
  Nb  Nb10  1  0.28532700  0.68527300  0.36029000  1
  H  H11  1  0.42781300  0.66300600  0.21995200  1
  H  H12  1  0.59727100  0.68594500  0.36547200  1
  H  H13  1  0.39601900  0.70169000  0.50416600  1
  H  H14  1  0.97359100  0.97741100  0.86889700  1
  H  H15  1  0.98031800  0.87090300  0.71572000  1
  H  H16  1  0.79349900  0.18838700  0.79360400  1
  Nb  Nb17  1  0.54814100  0.21453700  0.70770500  1
  H  H18  1  0.29181600  0.34788200  0.82614700  1
  H  H19  1  0.68379200  0.45402000  0.63190900  1
  H  H20  1  0.04172800  0.55911200  0.73591300  1
  H  H21  1  0.33476500  0.05882000  0.65350500  1
  Sr  Sr22  1  0.74588100  0.49041400  0.12518400  1
  H  H23  1  0.47696100  0.28582300  0.04977000  1
