# generated using pymatgen
data_Sr2NbH12
_symmetry_space_group_name_H-M   'P 1'
_cell_length_a   4.32356900
_cell_length_b   6.10966974
_cell_length_c   6.77529988
_cell_angle_alpha   78.58548057
_cell_angle_beta   71.41676448
_cell_angle_gamma   74.57676227
_symmetry_Int_Tables_number   1
_chemical_formula_structural   Sr2NbH12
_chemical_formula_sum   'Sr2 Nb1 H12'
_cell_volume   162.27409648
_cell_formula_units_Z   1
loop_
 _symmetry_equiv_pos_site_id
 _symmetry_equiv_pos_as_xyz
  1  'x, y, z'
loop_
 _atom_site_type_symbol
 _atom_site_label
 _atom_site_symmetry_multiplicity
 _atom_site_fract_x
 _atom_site_fract_y
 _atom_site_fract_z
 _atom_site_occupancy
  H  H0  1  0.74367800  0.48840900  0.29734100  1
  H  H1  1  0.93589300  0.60611400  0.21667200  1
  H  H2  1  0.19590900  0.51344100  0.44046000  1
  H  H3  1  0.40486300  0.53883600  0.21793800  1
  H  H4  1  0.31173600  0.31015100  0.22586500  1
  H  H5  1  0.35898400  0.45020400  0.99479800  1
  H  H6  1  0.59057300  0.39902900  0.59634500  1
  H  H7  1  0.44360400  0.11858000  0.87763400  1
  H  H8  1  0.46812700  0.92738600  0.93774500  1
  Nb  Nb9  1  0.20387500  0.80475100  0.95356700  1
  H  H10  1  0.56149700  0.71947700  0.69045800  1
  H  H11  1  0.11737700  0.79664300  0.69026100  1
  H  H12  1  0.09670700  0.13490100  0.59988000  1
  Sr  Sr13  1  0.71654500  0.14492200  0.39184500  1
  Sr  Sr14  1  0.96510400  0.36620900  0.82154100  1
