# generated using pymatgen
data_Sr5NbH15
_symmetry_space_group_name_H-M   'P 1'
_cell_length_a   6.41342000
_cell_length_b   6.84107644
_cell_length_c   6.93457268
_cell_angle_alpha   67.56229520
_cell_angle_beta   74.77009057
_cell_angle_gamma   63.23846172
_symmetry_Int_Tables_number   1
_chemical_formula_structural   Sr5NbH15
_chemical_formula_sum   'Sr5 Nb1 H15'
_cell_volume   249.57162079
_cell_formula_units_Z   1
loop_
 _symmetry_equiv_pos_site_id
 _symmetry_equiv_pos_as_xyz
  1  'x, y, z'
loop_
 _atom_site_type_symbol
 _atom_site_label
 _atom_site_symmetry_multiplicity
 _atom_site_fract_x
 _atom_site_fract_y
 _atom_site_fract_z
 _atom_site_occupancy
  Sr  Sr0  1  0.92405200  0.29235600  0.62012400  1
  H  H1  1  0.75432900  0.13633500  0.82261400  1
  H  H2  1  0.13635800  0.00362600  0.75302600  1
  H  H3  1  0.92681800  0.42337200  0.32814900  1
  H  H4  1  0.66998300  0.49056900  0.75441200  1
  H  H5  1  0.93392300  0.58620900  0.53607600  1
  H  H6  1  0.64175400  0.34697800  0.53145000  1
  H  H7  1  0.97460300  0.06588600  0.49794100  1
  H  H8  1  0.03968800  0.29024600  0.84825300  1
  H  H9  1  0.23503600  0.27185900  0.50057100  1
  Nb  Nb10  1  0.26581100  0.14633000  0.17626300  1
  H  H11  1  0.52684200  0.91163500  0.98350700  1
  H  H12  1  0.89355000  0.66638300  0.88687200  1
  Sr  Sr13  1  0.91166200  0.82146200  0.12342300  1
  Sr  Sr14  1  0.61630900  0.94822500  0.62819100  1
  H  H15  1  0.22494500  0.78015900  0.26866200  1
  H  H16  1  0.51751900  0.80782500  0.39895300  1
  Sr  Sr17  1  0.59904500  0.51592000  0.13354600  1
  H  H18  1  0.63168200  0.13378200  0.25028000  1
  H  H19  1  0.28062400  0.52727000  0.01203100  1
  Sr  Sr20  1  0.25381900  0.61593600  0.64499300  1
