# generated using pymatgen
data_SrNb3H20
_symmetry_space_group_name_H-M   'P 1'
_cell_length_a   5.15238600
_cell_length_b   5.35155935
_cell_length_c   6.76925391
_cell_angle_alpha   92.45282441
_cell_angle_beta   98.66305488
_cell_angle_gamma   90.10121808
_symmetry_Int_Tables_number   1
_chemical_formula_structural   SrNb3H20
_chemical_formula_sum   'Sr1 Nb3 H20'
_cell_volume   184.34577617
_cell_formula_units_Z   1
loop_
 _symmetry_equiv_pos_site_id
 _symmetry_equiv_pos_as_xyz
  1  'x, y, z'
loop_
 _atom_site_type_symbol
 _atom_site_label
 _atom_site_symmetry_multiplicity
 _atom_site_fract_x
 _atom_site_fract_y
 _atom_site_fract_z
 _atom_site_occupancy
  H  H0  1  0.71044000  0.35575100  0.37075100  1
  H  H1  1  0.65193700  0.50098800  0.14112000  1
  H  H2  1  0.50003400  0.51757400  0.83021000  1
  H  H3  1  0.53939100  0.65941600  0.84944300  1
  H  H4  1  0.42611100  0.42265900  0.68519100  1
  H  H5  1  0.42034200  0.83729800  0.69138500  1
  Nb  Nb6  1  0.53863600  0.59327100  0.51963700  1
  H  H7  1  0.72428100  0.75582400  0.37681400  1
  H  H8  1  0.16299000  0.59279600  0.52034700  1
  H  H9  1  0.28706700  0.79478400  0.37873500  1
  Nb  Nb10  1  0.39600600  0.75450800  0.14558000  1
  Nb  Nb11  1  0.37734600  0.25541800  0.13564200  1
  H  H12  1  0.27721400  0.32977000  0.37085300  1
  H  H13  1  0.00003400  0.51757400  0.83021000  1
  H  H14  1  0.03939100  0.65941600  0.84944300  1
  H  H15  1  0.87031300  0.44241900  0.67550400  1
  H  H16  1  0.86420200  0.82497400  0.68279500  1
  H  H17  1  0.73521100  0.14294400  0.74241600  1
  H  H18  1  0.75176700  0.00302000  0.93137100  1
  H  H19  1  0.66740900  0.01317500  0.17860800  1
  H  H20  1  0.95504600  0.22057200  0.09671600  1
  H  H21  1  0.12682800  0.51608600  0.16062300  1
  H  H22  1  0.25176700  0.00302000  0.93137100  1
  Sr  Sr23  1  0.06215800  0.09558800  0.52804100  1
