# generated using pymatgen
data_Sr2NbH13
_symmetry_space_group_name_H-M   'P 1'
_cell_length_a   4.11019200
_cell_length_b   5.81851847
_cell_length_c   7.13966373
_cell_angle_alpha   91.00865897
_cell_angle_beta   99.05697333
_cell_angle_gamma   92.87655414
_symmetry_Int_Tables_number   1
_chemical_formula_structural   Sr2NbH13
_chemical_formula_sum   'Sr2 Nb1 H13'
_cell_volume   168.34909532
_cell_formula_units_Z   1
loop_
 _symmetry_equiv_pos_site_id
 _symmetry_equiv_pos_as_xyz
  1  'x, y, z'
loop_
 _atom_site_type_symbol
 _atom_site_label
 _atom_site_symmetry_multiplicity
 _atom_site_fract_x
 _atom_site_fract_y
 _atom_site_fract_z
 _atom_site_occupancy
  Sr  Sr0  1  0.07061100  0.21116100  0.01034100  1
  H  H1  1  0.72757400  0.01958100  0.89441300  1
  H  H2  1  0.77686600  0.52217900  0.73293900  1
  H  H3  1  0.75061400  0.52868700  0.85439300  1
  H  H4  1  0.00167700  0.55474400  0.79580900  1
  H  H5  1  0.34355000  0.76783800  0.88866000  1
  H  H6  1  0.01711600  0.41689100  0.25281700  1
  H  H7  1  0.97631600  0.51024800  0.12784800  1
  H  H8  1  0.00756800  0.29084500  0.49966300  1
  H  H9  1  0.34328700  0.42571500  0.59444700  1
  Nb  Nb10  1  0.01207000  0.02371100  0.63106400  1
  H  H11  1  0.70720700  0.07743400  0.60533500  1
  H  H12  1  0.15921600  0.79208300  0.50797300  1
  H  H13  1  0.11065300  0.89343000  0.23259000  1
  H  H14  1  0.70212400  0.59674500  0.39511200  1
  Sr  Sr15  1  0.64394000  0.06998800  0.22245100  1
