# generated using pymatgen
data_SrNbH21
_symmetry_space_group_name_H-M   'P 1'
_cell_length_a   4.78947100
_cell_length_b   5.02809580
_cell_length_c   7.37789613
_cell_angle_alpha   89.11362379
_cell_angle_beta   82.84620846
_cell_angle_gamma   86.17525794
_symmetry_Int_Tables_number   1
_chemical_formula_structural   SrNbH21
_chemical_formula_sum   'Sr1 Nb1 H21'
_cell_volume   175.89354097
_cell_formula_units_Z   1
loop_
 _symmetry_equiv_pos_site_id
 _symmetry_equiv_pos_as_xyz
  1  'x, y, z'
loop_
 _atom_site_type_symbol
 _atom_site_label
 _atom_site_symmetry_multiplicity
 _atom_site_fract_x
 _atom_site_fract_y
 _atom_site_fract_z
 _atom_site_occupancy
  H  H0  1  0.63724000  0.13184200  0.68055500  1
  H  H1  1  0.67791500  0.26464300  0.63807100  1
  H  H2  1  0.64551500  0.69336300  0.62780000  1
  H  H3  1  0.61924500  0.70970100  0.73082900  1
  H  H4  1  0.14423800  0.16025200  0.89696900  1
  H  H5  1  0.07716900  0.15398000  0.80982700  1
  H  H6  1  0.14984600  0.95102200  0.61841900  1
  H  H7  1  0.08573100  0.88372700  0.54241300  1
  H  H8  1  0.73871900  0.36955900  0.02839300  1
  H  H9  1  0.61617700  0.48776300  0.02674200  1
  H  H10  1  0.09200000  0.62827900  0.89990800  1
  H  H11  1  0.97069200  0.75129300  0.89310500  1
  H  H12  1  0.22573300  0.43667100  0.07295800  1
  H  H13  1  0.22915800  0.40696400  0.63665300  1
  H  H14  1  0.16906800  0.48578300  0.55928800  1
  H  H15  1  0.13789500  0.64220100  0.34367800  1
  Sr  Sr16  1  0.92152700  0.66206700  0.15809200  1
  H  H17  1  0.22804000  0.85027500  0.10856300  1
  H  H18  1  0.90105300  0.96655300  0.28503900  1
  H  H19  1  0.89126000  0.34814200  0.28265200  1
  H  H20  1  0.67960300  0.90949900  0.05019200  1
  H  H21  1  0.61512300  0.67211100  0.34317400  1
  Nb  Nb22  1  0.39348000  0.14784500  0.30808700  1
