# generated using pymatgen
data_Sr2NbH11
_symmetry_space_group_name_H-M   'P 1'
_cell_length_a   4.13860800
_cell_length_b   5.45305903
_cell_length_c   7.07881223
_cell_angle_alpha   83.08740414
_cell_angle_beta   85.11627444
_cell_angle_gamma   80.79905858
_symmetry_Int_Tables_number   1
_chemical_formula_structural   Sr2NbH11
_chemical_formula_sum   'Sr2 Nb1 H11'
_cell_volume   156.19907963
_cell_formula_units_Z   1
loop_
 _symmetry_equiv_pos_site_id
 _symmetry_equiv_pos_as_xyz
  1  'x, y, z'
loop_
 _atom_site_type_symbol
 _atom_site_label
 _atom_site_symmetry_multiplicity
 _atom_site_fract_x
 _atom_site_fract_y
 _atom_site_fract_z
 _atom_site_occupancy
  H  H0  1  0.28803100  0.18998100  0.74216400  1
  H  H1  1  0.29695200  0.18158500  0.90208400  1
  Nb  Nb2  1  0.06810600  0.95649800  0.92806800  1
  H  H3  1  0.41430100  0.18545700  0.13126200  1
  H  H4  1  0.35749800  0.27950900  0.28616800  1
  H  H5  1  0.63262700  0.41560400  0.38133000  1
  H  H6  1  0.50502600  0.80504800  0.86200400  1
  Sr  Sr7  1  0.94630900  0.49656800  0.17477900  1
  H  H8  1  0.25766600  0.53629600  0.95671000  1
  H  H9  1  0.86497500  0.38047300  0.80883300  1
  H  H10  1  0.06852600  0.90052000  0.64041400  1
  Sr  Sr11  1  0.70735400  0.82199600  0.47482000  1
  H  H12  1  0.46313700  0.78384500  0.19387200  1
  H  H13  1  0.93251100  0.09635000  0.22805500  1
