# generated using pymatgen
data_Sr2NbH8
_symmetry_space_group_name_H-M   'P 1'
_cell_length_a   2.41975500
_cell_length_b   8.59221419
_cell_length_c   11.84566773
_cell_angle_alpha   102.20837276
_cell_angle_beta   90.88885616
_cell_angle_gamma   96.05487741
_symmetry_Int_Tables_number   1
_chemical_formula_structural   Sr2NbH8
_chemical_formula_sum   'Sr2 Nb1 H8'
_cell_volume   239.19005307
_cell_formula_units_Z   1
loop_
 _symmetry_equiv_pos_site_id
 _symmetry_equiv_pos_as_xyz
  1  'x, y, z'
loop_
 _atom_site_type_symbol
 _atom_site_label
 _atom_site_symmetry_multiplicity
 _atom_site_fract_x
 _atom_site_fract_y
 _atom_site_fract_z
 _atom_site_occupancy
  H  H0  1  0.47303100  0.03881500  0.32251300  1
  H  H1  1  0.90196000  0.76353900  0.32407000  1
  H  H2  1  0.54942700  0.75844700  0.94433600  1
  Nb  Nb3  1  0.02828100  0.69372400  0.97825800  1
  H  H4  1  0.42131300  0.76294600  0.11601600  1
  Sr  Sr5  1  0.33781000  0.60837500  0.79561900  1
  Sr  Sr6  1  0.26328800  0.98384900  0.08383900  1
  H  H7  1  0.28569200  0.94640900  0.83078200  1
  H  H8  1  0.95440000  0.07189300  0.70869200  1
  H  H9  1  0.73887000  0.62014700  0.58643000  1
  H  H10  1  0.34830700  0.37210600  0.09300000  1
