# generated using pymatgen
data_SrNbH16
_symmetry_space_group_name_H-M   'P 1'
_cell_length_a   4.97555800
_cell_length_b   5.25117534
_cell_length_c   6.00184849
_cell_angle_alpha   108.29421732
_cell_angle_beta   100.22998517
_cell_angle_gamma   92.93141646
_symmetry_Int_Tables_number   1
_chemical_formula_structural   SrNbH16
_chemical_formula_sum   'Sr1 Nb1 H16'
_cell_volume   145.55887198
_cell_formula_units_Z   1
loop_
 _symmetry_equiv_pos_site_id
 _symmetry_equiv_pos_as_xyz
  1  'x, y, z'
loop_
 _atom_site_type_symbol
 _atom_site_label
 _atom_site_symmetry_multiplicity
 _atom_site_fract_x
 _atom_site_fract_y
 _atom_site_fract_z
 _atom_site_occupancy
  H  H0  1  0.46681700  0.13566800  0.44711000  1
  H  H1  1  0.46395100  0.30003100  0.47716800  1
  H  H2  1  0.66199400  0.24976000  0.60419100  1
  H  H3  1  0.50975800  0.82766800  0.95920700  1
  H  H4  1  0.48316300  0.69955400  0.00190900  1
  H  H5  1  0.61432800  0.92908000  0.81169700  1
  H  H6  1  0.51493100  0.51024800  0.12784800  1
  Nb  Nb7  1  0.56755000  0.27540500  0.87605100  1
  H  H8  1  0.82473500  0.63358000  0.93803000  1
  H  H9  1  0.13847900  0.93684000  0.74556100  1
  H  H10  1  0.07953000  0.05756400  0.69749600  1
  H  H11  1  0.14151500  0.62285900  0.28814200  1
  H  H12  1  0.15837400  0.45662100  0.19370200  1
  H  H13  1  0.94853600  0.27999600  0.93287700  1
  Sr  Sr14  1  0.82385800  0.71163000  0.55949100  1
  H  H15  1  0.69515500  0.16877600  0.14937700  1
  H  H16  1  0.01694400  0.98979300  0.17540600  1
  H  H17  1  0.06420100  0.48463100  0.71240000  1
