# generated using pymatgen
data_SrNb2H13
_symmetry_space_group_name_H-M   'P 1'
_cell_length_a   3.91602500
_cell_length_b   5.37994300
_cell_length_c   6.63343437
_cell_angle_alpha   103.85544622
_cell_angle_beta   96.58937438
_cell_angle_gamma   91.48175600
_symmetry_Int_Tables_number   1
_chemical_formula_structural   SrNb2H13
_chemical_formula_sum   'Sr1 Nb2 H13'
_cell_volume   134.58412276
_cell_formula_units_Z   1
loop_
 _symmetry_equiv_pos_site_id
 _symmetry_equiv_pos_as_xyz
  1  'x, y, z'
loop_
 _atom_site_type_symbol
 _atom_site_label
 _atom_site_symmetry_multiplicity
 _atom_site_fract_x
 _atom_site_fract_y
 _atom_site_fract_z
 _atom_site_occupancy
  H  H0  1  0.78836000  0.78768000  0.24711400  1
  Sr  Sr1  1  0.14335700  0.83495100  0.41792500  1
  H  H2  1  0.26231300  0.16299200  0.65513700  1
  H  H3  1  0.39092500  0.20898000  0.91319800  1
  H  H4  1  0.75634900  0.39339300  0.64200000  1
  H  H5  1  0.70556200  0.13110800  0.54215300  1
  H  H6  1  0.70571700  0.60497200  0.54323100  1
  Nb  Nb7  1  0.82206500  0.67266400  0.77484500  1
  Nb  Nb8  1  0.82130000  0.17791400  0.77406300  1
  H  H9  1  0.75994800  0.89500200  0.65059800  1
  H  H10  1  0.89534800  0.46084500  0.92267600  1
  H  H11  1  0.89542700  0.96118300  0.92210400  1
  H  H12  1  0.42500800  0.73336700  0.00404700  1
  H  H13  1  0.39101600  0.70874200  0.91384300  1
  H  H14  1  0.26254300  0.63034300  0.65638600  1
  H  H15  1  0.77632000  0.23515700  0.24587200  1
