# generated using pymatgen
data_SrNbH17
_symmetry_space_group_name_H-M   'P 1'
_cell_length_a   4.30707400
_cell_length_b   5.28903402
_cell_length_c   6.85347056
_cell_angle_alpha   76.99792489
_cell_angle_beta   85.46873732
_cell_angle_gamma   88.28723069
_symmetry_Int_Tables_number   1
_chemical_formula_structural   SrNbH17
_chemical_formula_sum   'Sr1 Nb1 H17'
_cell_volume   151.63386255
_cell_formula_units_Z   1
loop_
 _symmetry_equiv_pos_site_id
 _symmetry_equiv_pos_as_xyz
  1  'x, y, z'
loop_
 _atom_site_type_symbol
 _atom_site_label
 _atom_site_symmetry_multiplicity
 _atom_site_fract_x
 _atom_site_fract_y
 _atom_site_fract_z
 _atom_site_occupancy
  H  H0  1  0.75701700  0.33074300  0.03470000  1
  H  H1  1  0.84705900  0.20164900  0.06269100  1
  H  H2  1  0.20983600  0.65493900  0.96798100  1
  H  H3  1  0.23486400  0.80278800  0.00112200  1
  H  H4  1  0.28879100  0.35363200  0.17261700  1
  H  H5  1  0.30752600  0.24750300  0.26442000  1
  H  H6  1  0.41925000  0.09966600  0.82234600  1
  H  H7  1  0.41140700  0.09185300  0.71522400  1
  H  H8  1  0.25414800  0.07674600  0.44067900  1
  H  H9  1  0.32650700  0.16394100  0.54282400  1
  H  H10  1  0.12983700  0.84197900  0.45322400  1
  Nb  Nb11  1  0.33152000  0.85173700  0.70164900  1
  H  H12  1  0.78886800  0.96798700  0.74404300  1
  H  H13  1  0.22272600  0.52370400  0.69350700  1
  H  H14  1  0.74279900  0.71981600  0.12273900  1
  H  H15  1  0.69993900  0.78208600  0.22126200  1
  H  H16  1  0.60095600  0.82343900  0.47867400  1
  H  H17  1  0.65047300  0.60351800  0.78412100  1
  Sr  Sr18  1  0.80491200  0.38589400  0.49539700  1
