# generated using pymatgen
data_SrNbH9
_symmetry_space_group_name_H-M   'P 1'
_cell_length_a   4.47846900
_cell_length_b   6.16921943
_cell_length_c   7.51501963
_cell_angle_alpha   90.83743727
_cell_angle_beta   95.77063417
_cell_angle_gamma   93.83309709
_symmetry_Int_Tables_number   1
_chemical_formula_structural   SrNbH9
_chemical_formula_sum   'Sr2 Nb2 H18'
_cell_volume   206.06798894
_cell_formula_units_Z   2
loop_
 _symmetry_equiv_pos_site_id
 _symmetry_equiv_pos_as_xyz
  1  'x, y, z'
loop_
 _atom_site_type_symbol
 _atom_site_label
 _atom_site_symmetry_multiplicity
 _atom_site_fract_x
 _atom_site_fract_y
 _atom_site_fract_z
 _atom_site_occupancy
  H  H0  1  0.02319800  0.55484500  0.97925400  1
  Sr  Sr1  1  0.70128800  0.33891200  0.04438300  1
  H  H2  1  0.82097600  0.53094900  0.27603800  1
  H  H3  1  0.31724100  0.92057900  0.91619200  1
  H  H4  1  0.24340800  0.03937400  0.90003800  1
  H  H5  1  0.58429300  0.14684500  0.80927500  1
  Sr  Sr6  1  0.70128800  0.83891200  0.04438300  1
  H  H7  1  0.18450400  0.34593500  0.19260300  1
  H  H8  1  0.16840900  0.31517900  0.30318000  1
  Nb  Nb9  1  0.39020000  0.49514700  0.41697600  1
  H  H10  1  0.45607200  0.71263900  0.55001700  1
  H  H11  1  0.24765900  0.89912600  0.23466000  1
  H  H12  1  0.26726400  0.80721800  0.31224500  1
  Nb  Nb13  1  0.39020000  0.99514700  0.41697600  1
  H  H14  1  0.21064600  0.15410500  0.59497600  1
  H  H15  1  0.11359500  0.26046400  0.63188800  1
  H  H16  1  0.45607200  0.21263900  0.55001700  1
  H  H17  1  0.01085700  0.68581400  0.63350500  1
  H  H18  1  0.95480900  0.46101000  0.54863700  1
  H  H19  1  0.95480900  0.96101000  0.54863700  1
  H  H20  1  0.58429300  0.64684500  0.80927500  1
  H  H21  1  0.82097600  0.03094900  0.27603800  1
