# generated using pymatgen
data_SrNb3H14
_symmetry_space_group_name_H-M   'P 1'
_cell_length_a   3.88569000
_cell_length_b   5.69703935
_cell_length_c   6.75612753
_cell_angle_alpha   95.91054633
_cell_angle_beta   96.07656647
_cell_angle_gamma   90.30049791
_symmetry_Int_Tables_number   1
_chemical_formula_structural   SrNb3H14
_chemical_formula_sum   'Sr1 Nb3 H14'
_cell_volume   147.90926489
_cell_formula_units_Z   1
loop_
 _symmetry_equiv_pos_site_id
 _symmetry_equiv_pos_as_xyz
  1  'x, y, z'
loop_
 _atom_site_type_symbol
 _atom_site_label
 _atom_site_symmetry_multiplicity
 _atom_site_fract_x
 _atom_site_fract_y
 _atom_site_fract_z
 _atom_site_occupancy
  H  H0  1  0.92202200  0.12466200  0.87017900  1
  H  H1  1  0.32976500  0.24650100  0.87975000  1
  Nb  Nb2  1  0.08578600  0.29208600  0.63585700  1
  H  H3  1  0.69461700  0.27323600  0.60150300  1
  H  H4  1  0.90387500  0.57681500  0.58669600  1
  H  H5  1  0.31189800  0.57841300  0.60544600  1
  Nb  Nb6  1  0.82206500  0.67266400  0.35169900  1
  H  H7  1  0.74854400  0.82773400  0.53528700  1
  H  H8  1  0.75634900  0.39339300  0.21885500  1
  H  H9  1  0.70571700  0.60497200  0.12008500  1
  H  H10  1  0.70556200  0.13110800  0.11900700  1
  Nb  Nb11  1  0.82130000  0.17791400  0.35091800  1
  H  H12  1  0.75994800  0.89500200  0.22745200  1
  H  H13  1  0.00974100  0.49306100  0.87858300  1
  H  H14  1  0.28543100  0.99222300  0.59302800  1
  H  H15  1  0.26254300  0.63034300  0.23324000  1
  H  H16  1  0.26231300  0.16299200  0.23199100  1
  Sr  Sr17  1  0.58104600  0.79690700  0.88373900  1
