# generated using pymatgen
data_SrNbH22
_symmetry_space_group_name_H-M   'P 1'
_cell_length_a   5.05802400
_cell_length_b   5.63771049
_cell_length_c   7.06413672
_cell_angle_alpha   107.03789806
_cell_angle_beta   93.01724014
_cell_angle_gamma   107.04722283
_symmetry_Int_Tables_number   1
_chemical_formula_structural   SrNbH22
_chemical_formula_sum   'Sr1 Nb1 H22'
_cell_volume   182.00876323
_cell_formula_units_Z   1
loop_
 _symmetry_equiv_pos_site_id
 _symmetry_equiv_pos_as_xyz
  1  'x, y, z'
loop_
 _atom_site_type_symbol
 _atom_site_label
 _atom_site_symmetry_multiplicity
 _atom_site_fract_x
 _atom_site_fract_y
 _atom_site_fract_z
 _atom_site_occupancy
  H  H0  1  0.28594500  0.69199600  0.67286900  1
  H  H1  1  0.22994000  0.68209000  0.58413900  1
  H  H2  1  0.31455900  0.61421600  0.45010400  1
  H  H3  1  0.15266300  0.91036900  0.90879200  1
  H  H4  1  0.03838000  0.81539600  0.86102300  1
  H  H5  1  0.15297200  0.13640700  0.16695600  1
  H  H6  1  0.88411200  0.31517500  0.16697200  1
  H  H7  1  0.15266300  0.41036900  0.90879200  1
  H  H8  1  0.03838000  0.31539600  0.86102300  1
  H  H9  1  0.55121500  0.60048300  0.85689600  1
  H  H10  1  0.68420400  0.52286200  0.87783000  1
  H  H11  1  0.55121500  0.10048300  0.85689600  1
  H  H12  1  0.68420400  0.02286200  0.87783000  1
  H  H13  1  0.68790000  0.43937000  0.59653000  1
  H  H14  1  0.84004900  0.38427200  0.61686300  1
  H  H15  1  0.68971800  0.28212600  0.45059900  1
  Nb  Nb16  1  0.00670900  0.29068600  0.44386900  1
  H  H17  1  0.68790000  0.93937000  0.59653000  1
  H  H18  1  0.84004900  0.88427200  0.61686300  1
  H  H19  1  0.28594500  0.19199600  0.67286900  1
  H  H20  1  0.22994000  0.18209000  0.58413900  1
  H  H21  1  0.02269500  0.99029300  0.45088700  1
  Sr  Sr22  1  0.24657100  0.77088500  0.16356900  1
  H  H23  1  0.70577500  0.86758400  0.16747100  1
