# generated using pymatgen
data_SrNbH17
_symmetry_space_group_name_H-M   'P 1'
_cell_length_a   4.99381400
_cell_length_b   5.31007351
_cell_length_c   5.76703910
_cell_angle_alpha   85.99691511
_cell_angle_beta   84.40123185
_cell_angle_gamma   86.74179574
_symmetry_Int_Tables_number   1
_chemical_formula_structural   SrNbH17
_chemical_formula_sum   'Sr1 Nb1 H17'
_cell_volume   151.63385116
_cell_formula_units_Z   1
loop_
 _symmetry_equiv_pos_site_id
 _symmetry_equiv_pos_as_xyz
  1  'x, y, z'
loop_
 _atom_site_type_symbol
 _atom_site_label
 _atom_site_symmetry_multiplicity
 _atom_site_fract_x
 _atom_site_fract_y
 _atom_site_fract_z
 _atom_site_occupancy
  H  H0  1  0.32552000  0.05832700  0.10460200  1
  H  H1  1  0.19972800  0.14395100  0.13999200  1
  H  H2  1  0.39747900  0.56857300  0.12412400  1
  H  H3  1  0.27107400  0.57712000  0.21373400  1
  H  H4  1  0.73233200  0.28441500  0.09386200  1
  H  H5  1  0.78086300  0.19418700  0.19585800  1
  Nb  Nb6  1  0.61507300  0.48135500  0.84200500  1
  H  H7  1  0.83740100  0.82579400  0.01925100  1
  H  H8  1  0.95027200  0.70601400  0.01558500  1
  H  H9  1  0.07418600  0.48002900  0.80501500  1
  H  H10  1  0.10983300  0.82811800  0.44815500  1
  H  H11  1  0.21245000  0.79021900  0.56884900  1
  H  H12  1  0.83908400  0.90966700  0.40024100  1
  H  H13  1  0.56052400  0.69845200  0.51054000  1
  H  H14  1  0.83821600  0.72668000  0.68527400  1
  H  H15  1  0.91187800  0.06595900  0.70441800  1
  H  H16  1  0.53589200  0.90021700  0.82818300  1
  H  H17  1  0.91441700  0.47757600  0.46555300  1
  Sr  Sr18  1  0.41739900  0.25491300  0.55398100  1
