# generated using pymatgen
data_SrNbH11
_symmetry_space_group_name_H-M   'P 1'
_cell_length_a   3.81699400
_cell_length_b   4.03877845
_cell_length_c   7.67340281
_cell_angle_alpha   86.61296198
_cell_angle_beta   89.98164660
_cell_angle_gamma   77.29181425
_symmetry_Int_Tables_number   1
_chemical_formula_structural   SrNbH11
_chemical_formula_sum   'Sr1 Nb1 H11'
_cell_volume   115.18398192
_cell_formula_units_Z   1
loop_
 _symmetry_equiv_pos_site_id
 _symmetry_equiv_pos_as_xyz
  1  'x, y, z'
loop_
 _atom_site_type_symbol
 _atom_site_label
 _atom_site_symmetry_multiplicity
 _atom_site_fract_x
 _atom_site_fract_y
 _atom_site_fract_z
 _atom_site_occupancy
  H  H0  1  0.70384600  0.50158300  0.30761500  1
  H  H1  1  0.77152500  0.53074300  0.21940900  1
  Sr  Sr2  1  0.46657000  0.33774400  0.45308400  1
  H  H3  1  0.05070300  0.69932000  0.02422500  1
  H  H4  1  0.21759000  0.58693300  0.95293100  1
  H  H5  1  0.31815300  0.22444500  0.17217800  1
  H  H6  1  0.40090300  0.07007300  0.10696200  1
  H  H7  1  0.71620600  0.08892300  0.95297300  1
  Nb  Nb8  1  0.78371000  0.65497500  0.81792200  1
  H  H9  1  0.34396600  0.72061500  0.69530200  1
  H  H10  1  0.90291500  0.77406700  0.57232300  1
  H  H11  1  0.16148800  0.89687900  0.33359700  1
  H  H12  1  0.84816600  0.21521200  0.69513200  1
