# generated using pymatgen
data_SrNb3H16
_symmetry_space_group_name_H-M   'P 1'
_cell_length_a   4.11810600
_cell_length_b   6.14062694
_cell_length_c   6.71785089
_cell_angle_alpha   70.98753172
_cell_angle_beta   85.25500821
_cell_angle_gamma   88.16385139
_symmetry_Int_Tables_number   1
_chemical_formula_structural   SrNb3H16
_chemical_formula_sum   'Sr1 Nb3 H16'
_cell_volume   160.05924519
_cell_formula_units_Z   1
loop_
 _symmetry_equiv_pos_site_id
 _symmetry_equiv_pos_as_xyz
  1  'x, y, z'
loop_
 _atom_site_type_symbol
 _atom_site_label
 _atom_site_symmetry_multiplicity
 _atom_site_fract_x
 _atom_site_fract_y
 _atom_site_fract_z
 _atom_site_occupancy
  Nb  Nb0  1  0.11868200  0.04113700  0.64219000  1
  H  H1  1  0.17748000  0.32183900  0.50816100  1
  H  H2  1  0.87281400  0.81257500  0.92070600  1
  H  H3  1  0.95649100  0.89516800  0.94068400  1
  H  H4  1  0.37281400  0.81257500  0.92070600  1
  H  H5  1  0.45649100  0.89516800  0.94068400  1
  H  H6  1  0.58615300  0.03030800  0.75688300  1
  H  H7  1  0.66157100  0.08253700  0.49291900  1
  H  H8  1  0.79694700  0.14507200  0.23028300  1
  Nb  Nb9  1  0.71690000  0.37315200  0.35527600  1
  H  H10  1  0.59250200  0.80139800  0.27403600  1
  H  H11  1  0.68824800  0.85211200  0.32070500  1
  H  H12  1  0.09250200  0.80139800  0.27403600  1
  H  H13  1  0.18824800  0.85211200  0.32070500  1
  H  H14  1  0.00788300  0.61337400  0.36588900  1
  Nb  Nb15  1  0.12920200  0.54813800  0.62419000  1
  H  H16  1  0.85280800  0.44261600  0.07396700  1
  H  H17  1  0.26321400  0.42550600  0.21631400  1
  Sr  Sr18  1  0.42611300  0.21184100  0.99092600  1
  H  H19  1  0.60024100  0.45906000  0.74056200  1
