# generated using pymatgen
data_SrNbH16
_symmetry_space_group_name_H-M   'P 1'
_cell_length_a   4.04840700
_cell_length_b   5.09674949
_cell_length_c   7.16801223
_cell_angle_alpha   96.37770266
_cell_angle_beta   93.77893063
_cell_angle_gamma   96.56854232
_symmetry_Int_Tables_number   1
_chemical_formula_structural   SrNbH16
_chemical_formula_sum   'Sr1 Nb1 H16'
_cell_volume   145.55887707
_cell_formula_units_Z   1
loop_
 _symmetry_equiv_pos_site_id
 _symmetry_equiv_pos_as_xyz
  1  'x, y, z'
loop_
 _atom_site_type_symbol
 _atom_site_label
 _atom_site_symmetry_multiplicity
 _atom_site_fract_x
 _atom_site_fract_y
 _atom_site_fract_z
 _atom_site_occupancy
  H  H0  1  0.61778100  0.15499400  0.23627400  1
  H  H1  1  0.49217800  0.26663300  0.21975800  1
  H  H2  1  0.77703400  0.21821500  0.11092600  1
  H  H3  1  0.96935300  0.24239000  0.05175000  1
  H  H4  1  0.10729100  0.15285200  0.25539100  1
  H  H5  1  0.90756200  0.98866700  0.35011800  1
  H  H6  1  0.86927700  0.76593800  0.56927200  1
  H  H7  1  0.91377800  0.65025000  0.63322500  1
  H  H8  1  0.11362400  0.98451300  0.60258300  1
  H  H9  1  0.59496800  0.97464600  0.60527200  1
  H  H10  1  0.83846100  0.17227600  0.65343300  1
  H  H11  1  0.05073000  0.38136100  0.60552600  1
  H  H12  1  0.63607500  0.38450500  0.59202400  1
  Nb  Nb13  1  0.35148100  0.18105000  0.48843100  1
  H  H14  1  0.33539500  0.51986500  0.44882900  1
  H  H15  1  0.38445000  0.83204400  0.28305200  1
  H  H16  1  0.33917800  0.30193900  0.80842000  1
  Sr  Sr17  1  0.34085900  0.80881900  0.87756700  1
