# generated using pymatgen
data_Sr3NbH16
_symmetry_space_group_name_H-M   'P 1'
_cell_length_a   5.93337300
_cell_length_b   6.07405144
_cell_length_c   6.16724699
_cell_angle_alpha   79.66876854
_cell_angle_beta   78.65123576
_cell_angle_gamma   76.30863205
_symmetry_Int_Tables_number   1
_chemical_formula_structural   Sr3NbH16
_chemical_formula_sum   'Sr3 Nb1 H16'
_cell_volume   209.66076122
_cell_formula_units_Z   1
loop_
 _symmetry_equiv_pos_site_id
 _symmetry_equiv_pos_as_xyz
  1  'x, y, z'
loop_
 _atom_site_type_symbol
 _atom_site_label
 _atom_site_symmetry_multiplicity
 _atom_site_fract_x
 _atom_site_fract_y
 _atom_site_fract_z
 _atom_site_occupancy
  H  H0  1  0.87719400  0.77505500  0.73133800  1
  H  H1  1  0.03957400  0.87537200  0.46276700  1
  H  H2  1  0.84952800  0.48248100  0.60104700  1
  H  H3  1  0.03957400  0.37537200  0.46276700  1
  H  H4  1  0.31037500  0.35824600  0.46855000  1
  H  H5  1  0.99097000  0.10645000  0.11312800  1
  H  H6  1  0.14897300  0.06323200  0.20526500  1
  H  H7  1  0.36710700  0.96031200  0.15174700  1
  Nb  Nb8  1  0.36499700  0.07594800  0.37987600  1
  H  H9  1  0.59146700  0.02539700  0.50205900  1
  H  H10  1  0.52101900  0.24567100  0.17738600  1
  H  H11  1  0.23398100  0.07318200  0.67185100  1
  H  H12  1  0.65372700  0.86364200  0.24697400  1
  H  H13  1  0.14897300  0.56323200  0.20526500  1
  H  H14  1  0.38549400  0.76496400  0.49942900  1
  Sr  Sr15  1  0.83589200  0.08833800  0.87657700  1
  Sr  Sr16  1  0.70912900  0.38369100  0.37180900  1
  H  H17  1  0.74571800  0.47315800  0.01649300  1
  H  H18  1  0.52357100  0.36831800  0.74972000  1
  Sr  Sr19  1  0.51102400  0.73418900  0.82373700  1
