# generated using pymatgen
data_SrNb5H17
_symmetry_space_group_name_H-M   'P 1'
_cell_length_a   3.99075600
_cell_length_b   6.33080235
_cell_length_c   7.43533111
_cell_angle_alpha   89.52767971
_cell_angle_beta   93.08406507
_cell_angle_gamma   89.92549775
_symmetry_Int_Tables_number   1
_chemical_formula_structural   SrNb5H17
_chemical_formula_sum   'Sr1 Nb5 H17'
_cell_volume   187.57258694
_cell_formula_units_Z   1
loop_
 _symmetry_equiv_pos_site_id
 _symmetry_equiv_pos_as_xyz
  1  'x, y, z'
loop_
 _atom_site_type_symbol
 _atom_site_label
 _atom_site_symmetry_multiplicity
 _atom_site_fract_x
 _atom_site_fract_y
 _atom_site_fract_z
 _atom_site_occupancy
  Nb  Nb0  1  0.78391300  0.75563600  0.24069300  1
  H  H1  1  0.90291500  0.69372100  0.35536900  1
  H  H2  1  0.12682800  0.83769800  0.49372300  1
  H  H3  1  0.34396600  0.66699500  0.47834800  1
  H  H4  1  0.65193700  0.82260000  0.47422000  1
  Nb  Nb5  1  0.78371000  0.63417500  0.60096800  1
  H  H6  1  0.84816600  0.41429300  0.47817800  1
  H  H7  1  0.90291500  0.19372100  0.35536900  1
  H  H8  1  0.87031300  0.76403100  0.00860500  1
  H  H9  1  0.08503800  0.53703600  0.99383400  1
  Nb  Nb10  1  0.14989600  0.31714400  0.87104200  1
  H  H11  1  0.16299000  0.91440800  0.85344800  1
  H  H12  1  0.08503800  0.03703600  0.99383400  1
  H  H13  1  0.21759000  0.10015400  0.73597700  1
  Nb  Nb14  1  0.53863600  0.91488300  0.85273700  1
  H  H15  1  0.03060800  0.25774000  0.11658400  1
  H  H16  1  0.42611100  0.74427100  0.01829200  1
  H  H17  1  0.58969000  0.28446600  0.99362800  1
  Nb  Nb18  1  0.78371000  0.13417500  0.60096800  1
  H  H19  1  0.71620600  0.35114800  0.73601900  1
  H  H20  1  0.34396600  0.16699500  0.47834800  1
  H  H21  1  0.21759000  0.60015400  0.73597700  1
  Sr  Sr22  1  0.46657000  0.47555900  0.23613100  1
