# generated using pymatgen
data_SrNbH21
_symmetry_space_group_name_H-M   'P 1'
_cell_length_a   4.85607000
_cell_length_b   5.06402314
_cell_length_c   7.23479008
_cell_angle_alpha   97.19528258
_cell_angle_beta   94.49945912
_cell_angle_gamma   90.54623912
_symmetry_Int_Tables_number   1
_chemical_formula_structural   SrNbH21
_chemical_formula_sum   'Sr1 Nb1 H21'
_cell_volume   175.93377244
_cell_formula_units_Z   1
loop_
 _symmetry_equiv_pos_site_id
 _symmetry_equiv_pos_as_xyz
  1  'x, y, z'
loop_
 _atom_site_type_symbol
 _atom_site_label
 _atom_site_symmetry_multiplicity
 _atom_site_fract_x
 _atom_site_fract_y
 _atom_site_fract_z
 _atom_site_occupancy
  H  H0  1  0.39149100  0.68489100  0.76309800  1
  H  H1  1  0.29749600  0.61992900  0.68602800  1
  H  H2  1  0.55583100  0.53144700  0.52038400  1
  H  H3  1  0.71095600  0.44590400  0.53258300  1
  H  H4  1  0.02582200  0.44099600  0.44541800  1
  H  H5  1  0.46929100  0.38110100  0.98196100  1
  H  H6  1  0.42741500  0.25855900  0.92598400  1
  H  H7  1  0.69083600  0.03201300  0.04544000  1
  H  H8  1  0.53213800  0.03787100  0.07315800  1
  H  H9  1  0.70251500  0.99399300  0.18105700  1
  H  H10  1  0.34363900  0.17379100  0.68739000  1
  H  H11  1  0.85183600  0.92822500  0.53839700  1
  H  H12  1  0.00343900  0.88940200  0.51004600  1
  H  H13  1  0.08124400  0.76177000  0.31143200  1
  H  H14  1  0.87630900  0.65134000  0.89038300  1
  H  H15  1  0.92981300  0.64148100  0.80414000  1
  Nb  Nb16  1  0.73134700  0.69311700  0.32693100  1
  H  H17  1  0.81120200  0.61521700  0.11177500  1
  H  H18  1  0.66397500  0.35225500  0.26833800  1
  H  H19  1  0.48002200  0.92638200  0.41453400  1
  H  H20  1  0.39474100  0.69388600  0.15002700  1
  Sr  Sr21  1  0.17011200  0.20537100  0.18746600  1
  H  H22  1  0.90205100  0.21486200  0.83227200  1
