# generated using pymatgen
data_SrNb3H19
_symmetry_space_group_name_H-M   'P 1'
_cell_length_a   3.16707800
_cell_length_b   6.93575164
_cell_length_c   8.14198345
_cell_angle_alpha   85.67002955
_cell_angle_beta   88.63295292
_cell_angle_gamma   89.63125419
_symmetry_Int_Tables_number   1
_chemical_formula_structural   SrNb3H19
_chemical_formula_sum   'Sr1 Nb3 H19'
_cell_volume   178.28419337
_cell_formula_units_Z   1
loop_
 _symmetry_equiv_pos_site_id
 _symmetry_equiv_pos_as_xyz
  1  'x, y, z'
loop_
 _atom_site_type_symbol
 _atom_site_label
 _atom_site_symmetry_multiplicity
 _atom_site_fract_x
 _atom_site_fract_y
 _atom_site_fract_z
 _atom_site_occupancy
  Nb  Nb0  1  0.78371000  0.39725100  0.60096800  1
  H  H1  1  0.34396600  0.43007200  0.47834800  1
  H  H2  1  0.90291500  0.45679700  0.35536900  1
  H  H3  1  0.21759000  0.36323000  0.73597700  1
  H  H4  1  0.21759000  0.86323000  0.73597700  1
  H  H5  1  0.13374800  0.00564300  0.71460300  1
  H  H6  1  0.46116600  0.00713200  0.70545200  1
  H  H7  1  0.79712200  0.00954200  0.70607700  1
  Nb  Nb8  1  0.78371000  0.89725100  0.60096800  1
  H  H9  1  0.46325700  0.07459200  0.41618800  1
  H  H10  1  0.37947900  0.16757000  0.37702500  1
  H  H11  1  0.34396600  0.93007200  0.47834800  1
  H  H12  1  0.90291500  0.95679700  0.35536900  1
  H  H13  1  0.84816600  0.67737000  0.47817800  1
  H  H14  1  0.24175900  0.06119000  0.01124200  1
  H  H15  1  0.11338800  0.15500400  0.98806800  1
  H  H16  1  0.08503800  0.30011200  0.99383400  1
  Nb  Nb17  1  0.14989600  0.58022100  0.87104200  1
  H  H18  1  0.58969000  0.54754300  0.99362800  1
  H  H19  1  0.03060800  0.52081600  0.11658400  1
  H  H20  1  0.71620600  0.61422500  0.73601900  1
  H  H21  1  0.08503800  0.80011200  0.99383400  1
  Sr  Sr22  1  0.46657000  0.73863600  0.23613100  1
