# generated using pymatgen
data_SrNb2H21
_symmetry_space_group_name_H-M   'P 1'
_cell_length_a   5.13308900
_cell_length_b   5.37768497
_cell_length_c   6.64046301
_cell_angle_alpha   89.08482256
_cell_angle_beta   88.15825241
_cell_angle_gamma   90.25190179
_symmetry_Int_Tables_number   1
_chemical_formula_structural   SrNb2H21
_chemical_formula_sum   'Sr1 Nb2 H21'
_cell_volume   183.18396600
_cell_formula_units_Z   1
loop_
 _symmetry_equiv_pos_site_id
 _symmetry_equiv_pos_as_xyz
  1  'x, y, z'
loop_
 _atom_site_type_symbol
 _atom_site_label
 _atom_site_symmetry_multiplicity
 _atom_site_fract_x
 _atom_site_fract_y
 _atom_site_fract_z
 _atom_site_occupancy
  H  H0  1  0.88163900  0.65480200  0.11137200  1
  H  H1  1  0.02605200  0.73055000  0.06828200  1
  H  H2  1  0.92723700  0.71355100  0.95319000  1
  H  H3  1  0.88163900  0.15480200  0.11137200  1
  H  H4  1  0.02605200  0.23055000  0.06828200  1
  H  H5  1  0.06542500  0.06419900  0.93418800  1
  H  H6  1  0.66999900  0.08018400  0.92375400  1
  H  H7  1  0.50737100  0.75941800  0.25442100  1
  H  H8  1  0.47618900  0.82497500  0.17230200  1
  H  H9  1  0.64477900  0.79431900  0.62650300  1
  H  H10  1  0.41288900  0.69102800  0.49596900  1
  Nb  Nb11  1  0.89426800  0.96870100  0.69253800  1
  H  H12  1  0.23935200  0.04329300  0.69029200  1
  H  H13  1  0.18489300  0.41088600  0.38149200  1
  H  H14  1  0.21587100  0.40241700  0.51546300  1
  H  H15  1  0.01177600  0.13744900  0.41696200  1
  H  H16  1  0.12625200  0.63818100  0.70401800  1
  H  H17  1  0.50737100  0.25941800  0.25442100  1
  H  H18  1  0.47618900  0.32497500  0.17230200  1
  Nb  Nb19  1  0.39725400  0.04038700  0.41675500  1
  H  H20  1  0.87542700  0.32816900  0.69215000  1
  H  H21  1  0.57790600  0.22521900  0.60884200  1
  H  H22  1  0.94552900  0.74830300  0.43658900  1
  Sr  Sr23  1  0.47839900  0.57131700  0.92399700  1
