# generated using pymatgen
data_Sr2NbH10
_symmetry_space_group_name_H-M   'P 1'
_cell_length_a   4.00907000
_cell_length_b   5.90743103
_cell_length_c   6.40094736
_cell_angle_alpha   93.32062389
_cell_angle_beta   95.75541129
_cell_angle_gamma   93.60356011
_symmetry_Int_Tables_number   1
_chemical_formula_structural   Sr2NbH10
_chemical_formula_sum   'Sr2 Nb1 H10'
_cell_volume   150.21797521
_cell_formula_units_Z   1
loop_
 _symmetry_equiv_pos_site_id
 _symmetry_equiv_pos_as_xyz
  1  'x, y, z'
loop_
 _atom_site_type_symbol
 _atom_site_label
 _atom_site_symmetry_multiplicity
 _atom_site_fract_x
 _atom_site_fract_y
 _atom_site_fract_z
 _atom_site_occupancy
  H  H0  1  0.27951200  0.72630000  0.60907000  1
  H  H1  1  0.42210700  0.64904400  0.57796400  1
  H  H2  1  0.76917900  0.46679900  0.63086700  1
  Nb  Nb3  1  0.16947700  0.07235200  0.10010300  1
  H  H4  1  0.38452100  0.86732800  0.25339300  1
  H  H5  1  0.92625500  0.85969800  0.23015500  1
  H  H6  1  0.80451300  0.96358700  0.91906100  1
  H  H7  1  0.22800500  0.81049300  0.93524500  1
  H  H8  1  0.21712300  0.18160500  0.38278200  1
  H  H9  1  0.20264300  0.39239000  0.12062000  1
  H  H10  1  0.72901600  0.18147800  0.16299700  1
  Sr  Sr11  1  0.67847500  0.55998600  0.98268400  1
  Sr  Sr12  1  0.73734000  0.06689400  0.55923300  1
