# generated using pymatgen
data_Sr(Nb2H7)2
_symmetry_space_group_name_H-M   'P 1'
_cell_length_a   4.91334800
_cell_length_b   5.09220351
_cell_length_c   6.38294917
_cell_angle_alpha   94.30337328
_cell_angle_beta   90.44792594
_cell_angle_gamma   98.25629146
_symmetry_Int_Tables_number   1
_chemical_formula_structural   Sr(Nb2H7)2
_chemical_formula_sum   'Sr1 Nb4 H14'
_cell_volume   157.57116924
_cell_formula_units_Z   1
loop_
 _symmetry_equiv_pos_site_id
 _symmetry_equiv_pos_as_xyz
  1  'x, y, z'
loop_
 _atom_site_type_symbol
 _atom_site_label
 _atom_site_symmetry_multiplicity
 _atom_site_fract_x
 _atom_site_fract_y
 _atom_site_fract_z
 _atom_site_occupancy
  Nb  Nb0  1  0.29277300  0.08203100  0.62895100  1
  H  H1  1  0.58253700  0.28946800  0.58576500  1
  H  H2  1  0.29218000  0.31066500  0.37055800  1
  H  H3  1  0.03780600  0.25227400  0.30671800  1
  Nb  Nb4  1  0.79390700  0.09320200  0.39233100  1
  Nb  Nb5  1  0.53149500  0.58364300  0.35794000  1
  H  H6  1  0.75338300  0.74738000  0.52617600  1
  H  H7  1  0.99972100  0.90860500  0.18038800  1
  H  H8  1  0.03780600  0.75227400  0.30671800  1
  H  H9  1  0.79770400  0.60240000  0.18751800  1
  Nb  Nb10  1  0.29774200  0.07885500  0.11116800  1
  H  H11  1  0.58906700  0.28381400  0.15825300  1
  H  H12  1  0.29166200  0.67997400  0.14269700  1
  H  H13  1  0.59130100  0.90361600  0.18458000  1
  H  H14  1  0.10550100  0.98103800  0.87674100  1
  H  H15  1  0.47913500  0.94799000  0.86766600  1
  H  H16  1  0.31839000  0.32990000  0.86941800  1
  H  H17  1  0.31623000  0.70046500  0.58542700  1
  Sr  Sr18  1  0.77630000  0.54808400  0.85598200  1
