# generated using pymatgen
data_SrNbH15
_symmetry_space_group_name_H-M   'P 1'
_cell_length_a   4.28929900
_cell_length_b   5.57345329
_cell_length_c   5.93211594
_cell_angle_alpha   82.78675279
_cell_angle_beta   82.67069880
_cell_angle_gamma   87.44784574
_symmetry_Int_Tables_number   1
_chemical_formula_structural   SrNbH15
_chemical_formula_sum   'Sr1 Nb1 H15'
_cell_volume   139.48389776
_cell_formula_units_Z   1
loop_
 _symmetry_equiv_pos_site_id
 _symmetry_equiv_pos_as_xyz
  1  'x, y, z'
loop_
 _atom_site_type_symbol
 _atom_site_label
 _atom_site_symmetry_multiplicity
 _atom_site_fract_x
 _atom_site_fract_y
 _atom_site_fract_z
 _atom_site_occupancy
  Nb  Nb0  1  0.17445600  0.83361700  0.48256100  1
  H  H1  1  0.10979000  0.81804900  0.72807500  1
  H  H2  1  0.02204900  0.73507500  0.29047200  1
  H  H3  1  0.48411800  0.10872900  0.81459000  1
  H  H4  1  0.36702400  0.01973100  0.76200100  1
  H  H5  1  0.15020000  0.10048600  0.57958600  1
  H  H6  1  0.84891900  0.08940500  0.86529100  1
  H  H7  1  0.89042600  0.02475200  0.36266600  1
  H  H8  1  0.67238200  0.73981000  0.59674800  1
  H  H9  1  0.50662700  0.58176600  0.75529000  1
  H  H10  1  0.20958800  0.39720800  0.07423800  1
  H  H11  1  0.12204000  0.49076000  0.00596700  1
  H  H12  1  0.13385700  0.50736900  0.59462700  1
  H  H13  1  0.91563500  0.52838000  0.78409800  1
  H  H14  1  0.48871800  0.72604800  0.27577900  1
  H  H15  1  0.41636400  0.09594200  0.24890500  1
  Sr  Sr16  1  0.70019200  0.36180600  0.45897800  1
