# generated using pymatgen
data_Sr3NbH12
_symmetry_space_group_name_H-M   'P 1'
_cell_length_a   4.70217700
_cell_length_b   6.44094631
_cell_length_c   6.86275018
_cell_angle_alpha   73.33092975
_cell_angle_beta   71.27919619
_cell_angle_gamma   74.99016025
_symmetry_Int_Tables_number   1
_chemical_formula_structural   Sr3NbH12
_chemical_formula_sum   'Sr3 Nb1 H12'
_cell_volume   185.36086145
_cell_formula_units_Z   1
loop_
 _symmetry_equiv_pos_site_id
 _symmetry_equiv_pos_as_xyz
  1  'x, y, z'
loop_
 _atom_site_type_symbol
 _atom_site_label
 _atom_site_symmetry_multiplicity
 _atom_site_fract_x
 _atom_site_fract_y
 _atom_site_fract_z
 _atom_site_occupancy
  Sr  Sr0  1  0.06074000  0.23610000  0.74495700  1
  H  H1  1  0.51097800  0.12409200  0.75042300  1
  H  H2  1  0.13490500  0.68544100  0.47931100  1
  H  H3  1  0.32780000  0.52222100  0.26189000  1
  H  H4  1  0.71712800  0.68624100  0.75027400  1
  H  H5  1  0.94925000  0.89220800  0.75014200  1
  H  H6  1  0.80232000  0.31028200  0.47980600  1
  H  H7  1  0.82335500  0.26965200  0.26168400  1
  H  H8  1  0.89167500  0.04894700  0.13893300  1
  H  H9  1  0.89167500  0.54894700  0.13893300  1
  H  H10  1  0.82335500  0.76965200  0.26168400  1
  Nb  Nb11  1  0.81761100  0.99329100  0.47307500  1
  H  H12  1  0.51019900  0.97730500  0.48009400  1
  H  H13  1  0.32780000  0.02222100  0.26189000  1
  Sr  Sr14  1  0.44718300  0.83112800  0.01938700  1
  Sr  Sr15  1  0.44718300  0.33112800  0.01938700  1
