# generated using pymatgen
data_SrNbH14
_symmetry_space_group_name_H-M   'P 1'
_cell_length_a   3.30315800
_cell_length_b   4.37036441
_cell_length_c   9.46671512
_cell_angle_alpha   84.07792974
_cell_angle_beta   82.31590979
_cell_angle_gamma   81.34130969
_symmetry_Int_Tables_number   1
_chemical_formula_structural   SrNbH14
_chemical_formula_sum   'Sr1 Nb1 H14'
_cell_volume   133.40891155
_cell_formula_units_Z   1
loop_
 _symmetry_equiv_pos_site_id
 _symmetry_equiv_pos_as_xyz
  1  'x, y, z'
loop_
 _atom_site_type_symbol
 _atom_site_label
 _atom_site_symmetry_multiplicity
 _atom_site_fract_x
 _atom_site_fract_y
 _atom_site_fract_z
 _atom_site_occupancy
  H  H0  1  0.45947100  0.19514600  0.77028100  1
  H  H1  1  0.59171100  0.32987300  0.80515300  1
  H  H2  1  0.98569500  0.74745300  0.85289700  1
  H  H3  1  0.96771200  0.62173700  0.92511100  1
  H  H4  1  0.00859700  0.34975000  0.89589100  1
  H  H5  1  0.40528700  0.05623700  0.02441100  1
  H  H6  1  0.39244000  0.78065300  0.06702500  1
  H  H7  1  0.00238200  0.01133300  0.17899800  1
  H  H8  1  0.87513100  0.26099800  0.10887200  1
  Nb  Nb9  1  0.34301800  0.12347500  0.21907200  1
  H  H10  1  0.80938600  0.09150700  0.32447800  1
  H  H11  1  0.06417300  0.75761000  0.47736600  1
  H  H12  1  0.28078200  0.05512200  0.41789200  1
  Sr  Sr13  1  0.74050600  0.50523500  0.52210400  1
  H  H14  1  0.31470000  0.59495500  0.31450200  1
  H  H15  1  0.19412600  0.95186800  0.62751300  1
