# generated using pymatgen
data_SrNbH11
_symmetry_space_group_name_H-M   'P 1'
_cell_length_a   3.26424200
_cell_length_b   5.25358075
_cell_length_c   6.79078651
_cell_angle_alpha   82.35555116
_cell_angle_beta   86.34318769
_cell_angle_gamma   89.74569205
_symmetry_Int_Tables_number   1
_chemical_formula_structural   SrNbH11
_chemical_formula_sum   'Sr1 Nb1 H11'
_cell_volume   115.18398096
_cell_formula_units_Z   1
loop_
 _symmetry_equiv_pos_site_id
 _symmetry_equiv_pos_as_xyz
  1  'x, y, z'
loop_
 _atom_site_type_symbol
 _atom_site_label
 _atom_site_symmetry_multiplicity
 _atom_site_fract_x
 _atom_site_fract_y
 _atom_site_fract_z
 _atom_site_occupancy
  H  H0  1  0.60756000  0.20938900  0.50743300  1
  H  H1  1  0.75074300  0.30550300  0.53723300  1
  H  H2  1  0.44005100  0.45791300  0.47467300  1
  H  H3  1  0.45122500  0.95869400  0.45359700  1
  H  H4  1  0.22124700  0.07287500  0.29449900  1
  H  H5  1  0.55561300  0.81161100  0.24392300  1
  Nb  Nb6  1  0.96454100  0.70304600  0.42808100  1
  H  H7  1  0.83898000  0.79528000  0.67837700  1
  H  H8  1  0.04039600  0.43611000  0.27692700  1
  H  H9  1  0.24042800  0.70392400  0.87800700  1
  H  H10  1  0.12646500  0.41490300  0.79473500  1
  H  H11  1  0.12074300  0.06066100  0.78464400  1
  Sr  Sr12  1  0.66798800  0.24401900  0.02451400  1
