# generated using pymatgen
data_SrNb2H17
_symmetry_space_group_name_H-M   'P 1'
_cell_length_a   4.53370200
_cell_length_b   5.21143258
_cell_length_c   6.75247820
_cell_angle_alpha   90.46547382
_cell_angle_beta   94.58895513
_cell_angle_gamma   92.36489640
_symmetry_Int_Tables_number   1
_chemical_formula_structural   SrNb2H17
_chemical_formula_sum   'Sr1 Nb2 H17'
_cell_volume   158.88401793
_cell_formula_units_Z   1
loop_
 _symmetry_equiv_pos_site_id
 _symmetry_equiv_pos_as_xyz
  1  'x, y, z'
loop_
 _atom_site_type_symbol
 _atom_site_label
 _atom_site_symmetry_multiplicity
 _atom_site_fract_x
 _atom_site_fract_y
 _atom_site_fract_z
 _atom_site_occupancy
  H  H0  1  0.79590400  0.26747600  0.29085000  1
  H  H1  1  0.78519000  0.15166900  0.22159000  1
  H  H2  1  0.99119700  0.07222500  0.95549600  1
  H  H3  1  0.14893100  0.98608700  0.91519800  1
  H  H4  1  0.89613000  0.67308800  0.32856600  1
  H  H5  1  0.85350200  0.68533200  0.43011500  1
  Nb  Nb6  1  0.94555500  0.67310300  0.15154600  1
  H  H7  1  0.92060000  0.53951200  0.98428200  1
  H  H8  1  0.27092300  0.99681000  0.26217000  1
  H  H9  1  0.34509000  0.93681900  0.35526700  1
  H  H10  1  0.36742200  0.54428200  0.26446200  1
  H  H11  1  0.30863800  0.41117600  0.22228600  1
  H  H12  1  0.33850200  0.71065000  0.15984000  1
  H  H13  1  0.77397400  0.52996300  0.66390400  1
  Nb  Nb14  1  0.68343000  0.81092600  0.82802900  1
  H  H15  1  0.75971800  0.02383400  0.62257400  1
  H  H16  1  0.55655800  0.14038000  0.87321700  1
  H  H17  1  0.38627000  0.55413600  0.87451900  1
  H  H18  1  0.34913900  0.79063000  0.62672500  1
  Sr  Sr19  1  0.23737700  0.29977600  0.59791500  1
