# generated using pymatgen
data_SrNbH19
_symmetry_space_group_name_H-M   'P 1'
_cell_length_a   5.40240300
_cell_length_b   5.56490229
_cell_length_c   5.84430908
_cell_angle_alpha   108.28690376
_cell_angle_beta   100.25154343
_cell_angle_gamma   90.44954500
_symmetry_Int_Tables_number   1
_chemical_formula_structural   SrNbH19
_chemical_formula_sum   'Sr1 Nb1 H19'
_cell_volume   163.78383736
_cell_formula_units_Z   1
loop_
 _symmetry_equiv_pos_site_id
 _symmetry_equiv_pos_as_xyz
  1  'x, y, z'
loop_
 _atom_site_type_symbol
 _atom_site_label
 _atom_site_symmetry_multiplicity
 _atom_site_fract_x
 _atom_site_fract_y
 _atom_site_fract_z
 _atom_site_occupancy
  H  H0  1  0.56942800  0.23349100  0.39284600  1
  H  H1  1  0.53393500  0.35754700  0.47960100  1
  H  H2  1  0.76972500  0.48300400  0.88131700  1
  H  H3  1  0.75265100  0.33862800  0.85427400  1
  H  H4  1  0.68152200  0.85760100  0.14912800  1
  H  H5  1  0.76634400  0.81913500  0.25132100  1
  H  H6  1  0.87891400  0.17362100  0.14224200  1
  H  H7  1  0.91184900  0.29797600  0.24835300  1
  H  H8  1  0.84142100  0.83041700  0.67551600  1
  H  H9  1  0.88818700  0.69330500  0.69060100  1
  H  H10  1  0.14548900  0.51160500  0.67780300  1
  H  H11  1  0.19819900  0.00795900  0.41921900  1
  H  H12  1  0.14443000  0.11759600  0.52632900  1
  Sr  Sr13  1  0.21640400  0.83915600  0.68159600  1
  H  H14  1  0.48771400  0.71113600  0.81590600  1
  H  H15  1  0.06975300  0.12904200  0.82357900  1
  H  H16  1  0.46405400  0.78727400  0.49435200  1
  H  H17  1  0.06905800  0.63530700  0.36671300  1
  H  H18  1  0.48873400  0.07636300  0.83571300  1
  H  H19  1  0.20798300  0.87630100  0.01070900  1
  Nb  Nb20  1  0.35871600  0.48258100  0.08143800  1
