# generated using pymatgen
data_Sr5NbH16
_symmetry_space_group_name_H-M   'P 1'
_cell_length_a   6.14445600
_cell_length_b   6.37952365
_cell_length_c   7.25529291
_cell_angle_alpha   94.02667665
_cell_angle_beta   106.10365740
_cell_angle_gamma   108.23476646
_symmetry_Int_Tables_number   1
_chemical_formula_structural   Sr5NbH16
_chemical_formula_sum   'Sr5 Nb1 H16'
_cell_volume   255.64658962
_cell_formula_units_Z   1
loop_
 _symmetry_equiv_pos_site_id
 _symmetry_equiv_pos_as_xyz
  1  'x, y, z'
loop_
 _atom_site_type_symbol
 _atom_site_label
 _atom_site_symmetry_multiplicity
 _atom_site_fract_x
 _atom_site_fract_y
 _atom_site_fract_z
 _atom_site_occupancy
  Nb  Nb0  1  0.32791000  0.39492100  0.17279400  1
  H  H1  1  0.50881600  0.53658500  0.05548300  1
  H  H2  1  0.81798100  0.73826900  0.94331400  1
  H  H3  1  0.87078200  0.96190700  0.92263500  1
  H  H4  1  0.15502900  0.11069000  0.06649100  1
  H  H5  1  0.02323900  0.36379800  0.15086200  1
  H  H6  1  0.22792500  0.61547500  0.08632600  1
  H  H7  1  0.53489700  0.25583400  0.11909300  1
  H  H8  1  0.38168000  0.58286500  0.42723400  1
  H  H9  1  0.34563900  0.27797500  0.40787000  1
  H  H10  1  0.59372200  0.00092600  0.74624700  1
  Sr  Sr11  1  0.86350800  0.89318800  0.65703500  1
  H  H12  1  0.66491800  0.51039200  0.41691600  1
  H  H13  1  0.07205000  0.31811500  0.85442700  1
  Sr  Sr14  1  0.49976800  0.87893200  0.00083200  1
  Sr  Sr15  1  0.65792500  0.36401100  0.81432000  1
  H  H16  1  0.24510900  0.12286900  0.67438600  1
  H  H17  1  0.61462200  0.05887100  0.41517100  1
  H  H18  1  0.54016000  0.98568900  0.40479100  1
  Sr  Sr19  1  0.20883300  0.88386800  0.35540300  1
  Sr  Sr20  1  0.98393200  0.33427400  0.47237400  1
  H  H21  1  0.13366500  0.70734100  0.62447400  1
