# generated using pymatgen
data_SrNbH6
_symmetry_space_group_name_H-M   'P 1'
_cell_length_a   2.52375900
_cell_length_b   3.73854399
_cell_length_c   17.05397018
_cell_angle_alpha   91.92011046
_cell_angle_beta   92.16286363
_cell_angle_gamma   102.99348187
_symmetry_Int_Tables_number   1
_chemical_formula_structural   SrNbH6
_chemical_formula_sum   'Sr1 Nb1 H6'
_cell_volume   156.52995991
_cell_formula_units_Z   1
loop_
 _symmetry_equiv_pos_site_id
 _symmetry_equiv_pos_as_xyz
  1  'x, y, z'
loop_
 _atom_site_type_symbol
 _atom_site_label
 _atom_site_symmetry_multiplicity
 _atom_site_fract_x
 _atom_site_fract_y
 _atom_site_fract_z
 _atom_site_occupancy
  H  H0  1  0.77786000  0.81357600  0.40280800  1
  Nb  Nb1  1  0.04197100  0.83233900  0.35161700  1
  H  H2  1  0.39371300  0.68476000  0.31398000  1
  H  H3  1  0.85325700  0.48073300  0.23724500  1
  H  H4  1  0.95622100  0.30108200  0.30149600  1
  H  H5  1  0.49208400  0.90391800  0.13394900  1
  H  H6  1  0.61257600  0.22799300  0.00311300  1
  Sr  Sr7  1  0.06481300  0.40598500  0.76040800  1
