# generated using pymatgen
data_Sr2Nb2H15
_symmetry_space_group_name_H-M   'P 1'
_cell_length_a   4.49354900
_cell_length_b   5.89479608
_cell_length_c   7.25011525
_cell_angle_alpha   81.06155593
_cell_angle_beta   87.82314852
_cell_angle_gamma   82.00612516
_symmetry_Int_Tables_number   1
_chemical_formula_structural   Sr2Nb2H15
_chemical_formula_sum   'Sr2 Nb2 H15'
_cell_volume   187.84307175
_cell_formula_units_Z   1
loop_
 _symmetry_equiv_pos_site_id
 _symmetry_equiv_pos_as_xyz
  1  'x, y, z'
loop_
 _atom_site_type_symbol
 _atom_site_label
 _atom_site_symmetry_multiplicity
 _atom_site_fract_x
 _atom_site_fract_y
 _atom_site_fract_z
 _atom_site_occupancy
  H  H0  1  0.17078100  0.75509300  0.22117000  1
  H  H1  1  0.11264400  0.82490700  0.94933300  1
  H  H2  1  0.68224700  0.66076700  0.00813400  1
  H  H3  1  0.72857400  0.68932100  0.91062500  1
  H  H4  1  0.66827600  0.48090600  0.20649200  1
  Nb  Nb5  1  0.67041100  0.82218100  0.18149300  1
  H  H6  1  0.67541000  0.59205900  0.40799100  1
  Nb  Nb7  1  0.67102800  0.25721600  0.40219200  1
  H  H8  1  0.67999000  0.14914900  0.19765900  1
  H  H9  1  0.90011800  0.08024600  0.57862200  1
  H  H10  1  0.65688400  0.92777800  0.40058600  1
  H  H11  1  0.70212800  0.37990100  0.62655500  1
  H  H12  1  0.96158300  0.43696900  0.66957700  1
  H  H13  1  0.51638400  0.58653200  0.68119200  1
  Sr  Sr14  1  0.17685500  0.70814200  0.55201800  1
  H  H15  1  0.39767300  0.11215200  0.57592800  1
  H  H16  1  0.74746900  0.18013600  0.86609000  1
  H  H17  1  0.17339100  0.32614800  0.36948800  1
  Sr  Sr18  1  0.17851400  0.35228900  0.06269500  1
