# generated using pymatgen
data_Sr5NbH15
_symmetry_space_group_name_H-M   'P 1'
_cell_length_a   6.67495400
_cell_length_b   6.68197503
_cell_length_c   6.68651655
_cell_angle_alpha   61.36109257
_cell_angle_beta   72.67718462
_cell_angle_gamma   79.40697292
_symmetry_Int_Tables_number   1
_chemical_formula_structural   Sr5NbH15
_chemical_formula_sum   'Sr5 Nb1 H15'
_cell_volume   249.57162265
_cell_formula_units_Z   1
loop_
 _symmetry_equiv_pos_site_id
 _symmetry_equiv_pos_as_xyz
  1  'x, y, z'
loop_
 _atom_site_type_symbol
 _atom_site_label
 _atom_site_symmetry_multiplicity
 _atom_site_fract_x
 _atom_site_fract_y
 _atom_site_fract_z
 _atom_site_occupancy
  Nb  Nb0  1  0.59615700  0.17296800  0.16238800  1
  H  H1  1  0.42613500  0.94190800  0.40350000  1
  H  H2  1  0.39039700  0.12976600  0.04866900  1
  H  H3  1  0.68825000  0.90091100  0.13675100  1
  H  H4  1  0.72272400  0.96174300  0.40665200  1
  H  H5  1  0.89655400  0.17814300  0.06497400  1
  H  H6  1  0.69612600  0.20733300  0.84072200  1
  H  H7  1  0.47145200  0.22666600  0.44228800  1
  H  H8  1  0.47700700  0.46789900  0.94537900  1
  H  H9  1  0.69649400  0.45138800  0.14349200  1
  H  H10  1  0.17512000  0.20620500  0.29832400  1
  Sr  Sr11  1  0.08698100  0.54242200  0.96696300  1
  H  H12  1  0.98774100  0.53325300  0.33670100  1
  Sr  Sr13  1  0.09283000  0.85395900  0.33320200  1
  Sr  Sr14  1  0.62022200  0.53526400  0.49830800  1
  H  H15  1  0.25921600  0.53598500  0.60430200  1
  Sr  Sr16  1  0.09006100  0.21931100  0.67426100  1
  H  H17  1  0.97622100  0.90133300  0.69111200  1
  H  H18  1  0.86925400  0.58525900  0.68768400  1
  Sr  Sr19  1  0.60587000  0.85732500  0.81758100  1
  H  H20  1  0.23274400  0.86374400  0.94700600  1
