# generated using pymatgen
data_Sr2NbH9
_symmetry_space_group_name_H-M   'P 1'
_cell_length_a   5.67645400
_cell_length_b   6.09464823
_cell_length_c   8.14488099
_cell_angle_alpha   107.79469762
_cell_angle_beta   108.35881620
_cell_angle_gamma   78.68253053
_symmetry_Int_Tables_number   1
_chemical_formula_structural   Sr2NbH9
_chemical_formula_sum   'Sr2 Nb1 H9'
_cell_volume   253.07998608
_cell_formula_units_Z   1
loop_
 _symmetry_equiv_pos_site_id
 _symmetry_equiv_pos_as_xyz
  1  'x, y, z'
loop_
 _atom_site_type_symbol
 _atom_site_label
 _atom_site_symmetry_multiplicity
 _atom_site_fract_x
 _atom_site_fract_y
 _atom_site_fract_z
 _atom_site_occupancy
  H  H0  1  0.14402000  0.99761400  0.13335100  1
  H  H1  1  0.15413100  0.11101200  0.00521700  1
  H  H2  1  0.33419200  0.20985000  0.96010200  1
  H  H3  1  0.40436000  0.82447400  0.25931300  1
  Nb  Nb4  1  0.46259100  0.97691600  0.35028100  1
  H  H5  1  0.45668100  0.91658900  0.13792400  1
  H  H6  1  0.29308700  0.73181900  0.98069400  1
  Sr  Sr7  1  0.70994400  0.38241200  0.04389100  1
  H  H8  1  0.72506100  0.69266600  0.54436500  1
  Sr  Sr9  1  0.86132600  0.44963200  0.61958400  1
  H  H10  1  0.73398700  0.20879100  0.70501000  1
  H  H11  1  0.36244100  0.45363300  0.38963400  1
