# generated using pymatgen
data_SrNbH6
_symmetry_space_group_name_H-M   'P 1'
_cell_length_a   5.18521400
_cell_length_b   5.30396717
_cell_length_c   6.14466165
_cell_angle_alpha   76.28195470
_cell_angle_beta   89.23357942
_cell_angle_gamma   72.79364231
_symmetry_Int_Tables_number   1
_chemical_formula_structural   SrNbH6
_chemical_formula_sum   'Sr1 Nb1 H6'
_cell_volume   156.53000872
_cell_formula_units_Z   1
loop_
 _symmetry_equiv_pos_site_id
 _symmetry_equiv_pos_as_xyz
  1  'x, y, z'
loop_
 _atom_site_type_symbol
 _atom_site_label
 _atom_site_symmetry_multiplicity
 _atom_site_fract_x
 _atom_site_fract_y
 _atom_site_fract_z
 _atom_site_occupancy
  H  H0  1  0.92711900  0.54926300  0.74817900  1
  H  H1  1  0.80904500  0.77702600  0.81313100  1
  H  H2  1  0.69109300  0.33359000  0.60190600  1
  H  H3  1  0.80133600  0.23801600  0.73148900  1
  H  H4  1  0.61720800  0.13992100  0.68748200  1
  Nb  Nb5  1  0.55091000  0.44150400  0.83237900  1
  Sr  Sr6  1  0.91362200  0.57228200  0.41539000  1
  H  H7  1  0.53871400  0.63753400  0.11935800  1
