# generated using pymatgen
data_Sr4NbH15
_symmetry_space_group_name_H-M   'P 1'
_cell_length_a   6.26715000
_cell_length_b   6.63464415
_cell_length_c   6.63591666
_cell_angle_alpha   97.97888913
_cell_angle_beta   118.02945623
_cell_angle_gamma   103.56287042
_symmetry_Int_Tables_number   1
_chemical_formula_structural   Sr4NbH15
_chemical_formula_sum   'Sr4 Nb1 H15'
_cell_volume   226.57873247
_cell_formula_units_Z   1
loop_
 _symmetry_equiv_pos_site_id
 _symmetry_equiv_pos_as_xyz
  1  'x, y, z'
loop_
 _atom_site_type_symbol
 _atom_site_label
 _atom_site_symmetry_multiplicity
 _atom_site_fract_x
 _atom_site_fract_y
 _atom_site_fract_z
 _atom_site_occupancy
  Sr  Sr0  1  0.20883300  0.37832000  0.35540300  1
  H  H1  1  0.87954700  0.46242800  0.32131200  1
  Sr  Sr2  1  0.49976800  0.37338400  0.00083200  1
  H  H3  1  0.61462200  0.55332300  0.41517100  1
  H  H4  1  0.59372200  0.49537800  0.74624700  1
  H  H5  1  0.24510900  0.61732100  0.67438600  1
  Sr  Sr6  1  0.86350800  0.38764000  0.65703500  1
  Nb  Nb7  1  0.32791000  0.88937300  0.17279400  1
  H  H8  1  0.15502900  0.60514200  0.06649100  1
  H  H9  1  0.22792500  0.10992700  0.08632600  1
  H  H10  1  0.38168000  0.07731700  0.42723400  1
  H  H11  1  0.02323900  0.85825000  0.15086200  1
  H  H12  1  0.34563900  0.77242700  0.40787000  1
  H  H13  1  0.50881600  0.03103700  0.05548300  1
  H  H14  1  0.66491800  0.00484400  0.41691600  1
  H  H15  1  0.07205000  0.81256700  0.85442700  1
  H  H16  1  0.53489700  0.75028600  0.11909300  1
  Sr  Sr17  1  0.98393200  0.82872600  0.47237400  1
  H  H18  1  0.13366500  0.20179300  0.62447400  1
  H  H19  1  0.81798100  0.23272000  0.94331400  1
