# generated using pymatgen
data_Sr2NbH7
_symmetry_space_group_name_H-M   'P 1'
_cell_length_a   2.92783500
_cell_length_b   7.08431669
_cell_length_c   11.16924356
_cell_angle_alpha   88.33259918
_cell_angle_beta   82.81020352
_cell_angle_gamma   78.58648702
_symmetry_Int_Tables_number   1
_chemical_formula_structural   Sr2NbH7
_chemical_formula_sum   'Sr2 Nb1 H7'
_cell_volume   225.30002318
_cell_formula_units_Z   1
loop_
 _symmetry_equiv_pos_site_id
 _symmetry_equiv_pos_as_xyz
  1  'x, y, z'
loop_
 _atom_site_type_symbol
 _atom_site_label
 _atom_site_symmetry_multiplicity
 _atom_site_fract_x
 _atom_site_fract_y
 _atom_site_fract_z
 _atom_site_occupancy
  Sr  Sr0  1  0.34252600  0.96191700  0.83946600  1
  Nb  Nb1  1  0.33487500  0.77736600  0.69769200  1
  H  H2  1  0.29486900  0.53759300  0.82190500  1
  H  H3  1  0.87957800  0.31998300  0.72330800  1
  H  H4  1  0.07820000  0.66023200  0.31070100  1
  H  H5  1  0.97114700  0.81184200  0.26197800  1
  H  H6  1  0.19508500  0.65174400  0.18867700  1
  Sr  Sr7  1  0.04020700  0.03845400  0.23237200  1
  H  H8  1  0.58803400  0.80642400  0.15224800  1
  H  H9  1  0.85943500  0.40638200  0.11522000  1
