# generated using pymatgen
data_Sr(NbH3)5
_symmetry_space_group_name_H-M   'P 1'
_cell_length_a   4.98078900
_cell_length_b   5.72813992
_cell_length_c   6.30394712
_cell_angle_alpha   89.25607149
_cell_angle_beta   89.45621361
_cell_angle_gamma   89.00950208
_symmetry_Int_Tables_number   1
_chemical_formula_structural   Sr(NbH3)5
_chemical_formula_sum   'Sr1 Nb5 H15'
_cell_volume   179.80599233
_cell_formula_units_Z   1
loop_
 _symmetry_equiv_pos_site_id
 _symmetry_equiv_pos_as_xyz
  1  'x, y, z'
loop_
 _atom_site_type_symbol
 _atom_site_label
 _atom_site_symmetry_multiplicity
 _atom_site_fract_x
 _atom_site_fract_y
 _atom_site_fract_z
 _atom_site_occupancy
  Nb  Nb0  1  0.92114500  0.28513000  0.88883200  1
  H  H1  1  0.01896200  0.47737100  0.12325900  1
  H  H2  1  0.25262000  0.82948900  0.47382400  1
  H  H3  1  0.10781000  0.56911800  0.41833200  1
  Sr  Sr4  1  0.40914200  0.53425200  0.63423800  1
  H  H5  1  0.39760000  0.78516800  0.81248200  1
  Nb  Nb6  1  0.41635700  0.05137700  0.64206000  1
  H  H7  1  0.09638400  0.99157100  0.81542000  1
  H  H8  1  0.71618600  0.99380400  0.84174700  1
  Nb  Nb9  1  0.91796900  0.29009900  0.37104900  1
  H  H10  1  0.70112100  0.57519100  0.84066300  1
  H  H11  1  0.29953500  0.26664200  0.41457300  1
  Nb  Nb12  1  0.90679800  0.78896400  0.60766900  1
  H  H13  1  0.09139500  0.58315000  0.81961200  1
  H  H14  1  0.68933500  0.29069200  0.62944200  1
  H  H15  1  0.05201000  0.10373700  0.13233400  1
  H  H16  1  0.71053200  0.00033400  0.41423500  1
  H  H17  1  0.67010000  0.26448200  0.13058200  1
  H  H18  1  0.69114500  0.57452600  0.41101800  1
  H  H19  1  0.32002600  0.29121000  0.85730300  1
  Nb  Nb20  1  0.45191600  0.80657100  0.14401800  1
