# generated using pymatgen
data_Sr2NbH12
_symmetry_space_group_name_H-M   'P 1'
_cell_length_a   4.98800000
_cell_length_b   5.46955855
_cell_length_c   6.56851061
_cell_angle_alpha   90.35508943
_cell_angle_beta   108.50423116
_cell_angle_gamma   106.13248567
_symmetry_Int_Tables_number   1
_chemical_formula_structural   Sr2NbH12
_chemical_formula_sum   'Sr2 Nb1 H12'
_cell_volume   162.36794157
_cell_formula_units_Z   1
loop_
 _symmetry_equiv_pos_site_id
 _symmetry_equiv_pos_as_xyz
  1  'x, y, z'
loop_
 _atom_site_type_symbol
 _atom_site_label
 _atom_site_symmetry_multiplicity
 _atom_site_fract_x
 _atom_site_fract_y
 _atom_site_fract_z
 _atom_site_occupancy
  H  H0  1  0.19760000  0.26747600  0.92447800  1
  H  H1  1  0.18688600  0.15166900  0.85521700  1
  Nb  Nb2  1  0.08512600  0.81092600  0.46165700  1
  H  H3  1  0.16141400  0.02383400  0.25620100  1
  H  H4  1  0.32229600  0.53951200  0.61791000  1
  H  H5  1  0.22453500  0.61861300  0.69466300  1
  H  H6  1  0.29782500  0.67308800  0.96219300  1
  H  H7  1  0.25519700  0.68533200  0.06374200  1
  H  H8  1  0.48123800  0.77304700  0.15782700  1
  H  H9  1  0.61080600  0.70208000  0.91600000  1
  H  H10  1  0.58590400  0.47521000  0.15839300  1
  H  H11  1  0.17567000  0.52996300  0.29753200  1
  Sr  Sr12  1  0.69382100  0.67766600  0.56964100  1
  Sr  Sr13  1  0.65220500  0.15646700  0.01006300  1
  H  H14  1  0.77770700  0.17344400  0.62827200  1
