# generated using pymatgen
data_SrNbH6
_symmetry_space_group_name_H-M   'P 1'
_cell_length_a   5.18395100
_cell_length_b   5.55373900
_cell_length_c   5.99253429
_cell_angle_alpha   94.27305602
_cell_angle_beta   94.19614215
_cell_angle_gamma   113.69961644
_symmetry_Int_Tables_number   1
_chemical_formula_structural   SrNbH6
_chemical_formula_sum   'Sr1 Nb1 H6'
_cell_volume   156.52998757
_cell_formula_units_Z   1
loop_
 _symmetry_equiv_pos_site_id
 _symmetry_equiv_pos_as_xyz
  1  'x, y, z'
loop_
 _atom_site_type_symbol
 _atom_site_label
 _atom_site_symmetry_multiplicity
 _atom_site_fract_x
 _atom_site_fract_y
 _atom_site_fract_z
 _atom_site_occupancy
  H  H0  1  0.98116800  0.70097300  0.81869800  1
  Sr  Sr1  1  0.97243800  0.37150200  0.72365600  1
  H  H2  1  0.16242300  0.10030500  0.33546300  1
  Nb  Nb3  1  0.39685000  0.08674100  0.48561700  1
  H  H4  1  0.64715100  0.47929600  0.52629700  1
  H  H5  1  0.56769300  0.61580000  0.47632400  1
  H  H6  1  0.73967400  0.88821300  0.37559800  1
  H  H7  1  0.70353700  0.15424200  0.16751400  1
