# generated using pymatgen
data_H2
_symmetry_space_group_name_H-M   'P 1'
_cell_length_a   5.03732200
_cell_length_b   5.37697192
_cell_length_c   5.65972198
_cell_angle_alpha   89.33198147
_cell_angle_beta   83.55986367
_cell_angle_gamma   94.27455198
_symmetry_Int_Tables_number   1
_chemical_formula_structural   H2
_chemical_formula_sum   H25
_cell_volume   151.87452437
_cell_formula_units_Z   12
loop_
 _symmetry_equiv_pos_site_id
 _symmetry_equiv_pos_as_xyz
  1  'x, y, z'
loop_
 _atom_site_type_symbol
 _atom_site_label
 _atom_site_symmetry_multiplicity
 _atom_site_fract_x
 _atom_site_fract_y
 _atom_site_fract_z
 _atom_site_occupancy
  H  H0  1  0.76179900  0.36477800  0.88006900  1
  H  H1  1  0.74513200  0.39598400  0.02682600  1
  H  H2  1  0.06316000  0.64706700  0.74556100  1
  H  H3  1  0.94243600  0.61759200  0.69749600  1
  H  H4  1  0.17233200  0.83270600  0.95920700  1
  H  H5  1  0.30044600  0.81940800  0.00190900  1
  H  H6  1  0.45210700  0.53895100  0.80270500  1
  H  H7  1  0.51536900  0.60992700  0.71240000  1
  H  H8  1  0.17233200  0.33270600  0.95920700  1
  H  H9  1  0.30044600  0.31940800  0.00190900  1
  H  H10  1  0.76179900  0.86477800  0.88006900  1
  H  H11  1  0.74513200  0.89598400  0.02682600  1
  H  H12  1  0.37714100  0.64858400  0.28814200  1
  H  H13  1  0.54337900  0.65701400  0.19370200  1
  H  H14  1  0.29472200  0.35711500  0.47003400  1
  H  H15  1  0.29435000  0.44057600  0.45375600  1
  H  H16  1  0.29472200  0.85711500  0.47003400  1
  H  H17  1  0.29435000  0.94057600  0.45375600  1
  H  H18  1  0.40670600  0.12311600  0.47684200  1
  H  H19  1  0.86433200  0.81123600  0.44711000  1
  H  H20  1  0.69996900  0.80980200  0.47716800  1
  H  H21  1  0.86433200  0.31123600  0.44711000  1
  H  H22  1  0.69996900  0.30980200  0.47716800  1
  H  H23  1  0.88222900  0.54285900  0.29579300  1
  H  H24  1  0.01020700  0.58629900  0.17540600  1
