# generated using pymatgen
data_Sr2NbH18
_symmetry_space_group_name_H-M   'P 1'
_cell_length_a   4.58788400
_cell_length_b   6.35240209
_cell_length_c   6.97520316
_cell_angle_alpha   101.11435488
_cell_angle_beta   94.62089235
_cell_angle_gamma   90.89447760
_symmetry_Int_Tables_number   1
_chemical_formula_structural   Sr2NbH18
_chemical_formula_sum   'Sr2 Nb1 H18'
_cell_volume   198.72397778
_cell_formula_units_Z   1
loop_
 _symmetry_equiv_pos_site_id
 _symmetry_equiv_pos_as_xyz
  1  'x, y, z'
loop_
 _atom_site_type_symbol
 _atom_site_label
 _atom_site_symmetry_multiplicity
 _atom_site_fract_x
 _atom_site_fract_y
 _atom_site_fract_z
 _atom_site_occupancy
  H  H0  1  0.26116900  0.72316100  0.59786000  1
  H  H1  1  0.25610200  0.00748200  0.73559000  1
  H  H2  1  0.52530800  0.47211800  0.59655300  1
  H  H3  1  0.70770400  0.23031000  0.64372000  1
  H  H4  1  0.66844700  0.62569700  0.93283900  1
  H  H5  1  0.77755800  0.60363400  0.02997100  1
  H  H6  1  0.02157700  0.49628000  0.15677500  1
  Nb  Nb7  1  0.38640200  0.53648300  0.35063100  1
  H  H8  1  0.71874700  0.53739200  0.32459900  1
  H  H9  1  0.15658200  0.30996100  0.32418200  1
  H  H10  1  0.66911100  0.89806200  0.43554700  1
  H  H11  1  0.66747800  0.88082900  0.30311500  1
  H  H12  1  0.57696900  0.03024500  0.22450900  1
  H  H13  1  0.45089200  0.87083500  0.06586600  1
  H  H14  1  0.53873300  0.26097500  0.26813100  1
  H  H15  1  0.23806000  0.75139000  0.19807300  1
  H  H16  1  0.10737400  0.97136000  0.01142900  1
  H  H17  1  0.67752200  0.76044300  0.63054600  1
  H  H18  1  0.31969800  0.37579800  0.00578700  1
  Sr  Sr19  1  0.04012900  0.52992200  0.73519600  1
  Sr  Sr20  1  0.69498800  0.13712500  0.95037700  1
