# generated using pymatgen
data_H2
_symmetry_space_group_name_H-M   'P 1'
_cell_length_a   4.55508600
_cell_length_b   4.94023773
_cell_length_c   5.02795075
_cell_angle_alpha   66.27430933
_cell_angle_beta   89.49500393
_cell_angle_gamma   85.78031306
_symmetry_Int_Tables_number   1
_chemical_formula_structural   H2
_chemical_formula_sum   H17
_cell_volume   103.27468392
_cell_formula_units_Z   8
loop_
 _symmetry_equiv_pos_site_id
 _symmetry_equiv_pos_as_xyz
  1  'x, y, z'
loop_
 _atom_site_type_symbol
 _atom_site_label
 _atom_site_symmetry_multiplicity
 _atom_site_fract_x
 _atom_site_fract_y
 _atom_site_fract_z
 _atom_site_occupancy
  H  H0  1  0.74757100  0.88222900  0.29579300  1
  H  H1  1  0.66069300  0.01020700  0.17540600  1
  H  H2  1  0.16787800  0.17233200  0.95920700  1
  H  H3  1  0.19447300  0.30044600  0.00190900  1
  H  H4  1  0.10373300  0.76179900  0.88006900  1
  H  H5  1  0.04132300  0.74513200  0.02682600  1
  H  H6  1  0.53915700  0.06316000  0.74556100  1
  H  H7  1  0.59810700  0.94243600  0.69749600  1
  H  H8  1  0.53612100  0.37714100  0.28814200  1
  H  H9  1  0.51926200  0.54337900  0.19370200  1
  H  H10  1  0.75538900  0.45210700  0.80270500  1
  H  H11  1  0.61343600  0.51536900  0.71240000  1
  H  H12  1  0.21081900  0.86433200  0.44711000  1
  H  H13  1  0.21368600  0.69996900  0.47716800  1
  H  H14  1  0.11906000  0.29472200  0.47003400  1
  H  H15  1  0.95213800  0.29435000  0.45375600  1
  H  H16  1  0.03865100  0.47943200  0.50536700  1
