# generated using pymatgen
data_Sr2NbH7
_symmetry_space_group_name_H-M   'P 1'
_cell_length_a   4.84887200
_cell_length_b   6.71498010
_cell_length_c   7.91213109
_cell_angle_alpha   112.40723712
_cell_angle_beta   94.93209009
_cell_angle_gamma   104.84924931
_symmetry_Int_Tables_number   1
_chemical_formula_structural   Sr2NbH7
_chemical_formula_sum   'Sr2 Nb1 H7'
_cell_volume   225.29998527
_cell_formula_units_Z   1
loop_
 _symmetry_equiv_pos_site_id
 _symmetry_equiv_pos_as_xyz
  1  'x, y, z'
loop_
 _atom_site_type_symbol
 _atom_site_label
 _atom_site_symmetry_multiplicity
 _atom_site_fract_x
 _atom_site_fract_y
 _atom_site_fract_z
 _atom_site_occupancy
  H  H0  1  0.93408600  0.16626300  0.08908900  1
  H  H1  1  0.68946100  0.06616400  0.08706500  1
  Sr  Sr2  1  0.93179900  0.04492700  0.88064100  1
  H  H3  1  0.58120900  0.99045800  0.83751900  1
  H  H4  1  0.44121400  0.28501500  0.11633200  1
  Sr  Sr5  1  0.73033900  0.51664000  0.19405500  1
  H  H6  1  0.30840200  0.04084400  0.17539600  1
  Nb  Nb7  1  0.62979300  0.45637000  0.91319600  1
  H  H8  1  0.61238900  0.64550200  0.50710300  1
  H  H9  1  0.16477700  0.47972900  0.61505100  1
