# generated using pymatgen
data_Sr5NbH14
_symmetry_space_group_name_H-M   'P 1'
_cell_length_a   5.78095600
_cell_length_b   6.41272643
_cell_length_c   7.64069132
_cell_angle_alpha   83.01957513
_cell_angle_beta   89.00336334
_cell_angle_gamma   64.79997154
_symmetry_Int_Tables_number   1
_chemical_formula_structural   Sr5NbH14
_chemical_formula_sum   'Sr5 Nb1 H14'
_cell_volume   254.20934309
_cell_formula_units_Z   1
loop_
 _symmetry_equiv_pos_site_id
 _symmetry_equiv_pos_as_xyz
  1  'x, y, z'
loop_
 _atom_site_type_symbol
 _atom_site_label
 _atom_site_symmetry_multiplicity
 _atom_site_fract_x
 _atom_site_fract_y
 _atom_site_fract_z
 _atom_site_occupancy
  Sr  Sr0  1  0.19634900  0.58548100  0.47309800  1
  H  H1  1  0.11116700  0.90907900  0.30176100  1
  H  H2  1  0.24903700  0.21762800  0.47129100  1
  H  H3  1  0.04977000  0.47696100  0.78016900  1
  Sr  Sr4  1  0.18192600  0.50267300  0.96783800  1
  Nb  Nb5  1  0.70770500  0.54814100  0.70888300  1
  H  H6  1  0.82614700  0.29181600  0.84222800  1
  H  H7  1  0.43806000  0.49579800  0.78864200  1
  H  H8  1  0.39587800  0.79328700  0.67468100  1
  H  H9  1  0.79360400  0.79349900  0.68273300  1
  H  H10  1  0.73329000  0.59184800  0.45938400  1
  H  H11  1  0.39962500  0.42149500  0.17585100  1
  H  H12  1  0.65350500  0.33476500  0.55316700  1
  H  H13  1  0.63190900  0.68379200  0.94836600  1
  H  H14  1  0.92638300  0.63490200  0.21223900  1
  Sr  Sr15  1  0.54262000  0.93303800  0.28977800  1
  Sr  Sr16  1  0.43792700  0.14021000  0.79972600  1
  Sr  Sr17  1  0.86945000  0.30666900  0.19981100  1
  H  H18  1  0.73591300  0.04172800  0.05345900  1
  H  H19  1  0.23510700  0.05670900  0.04144100  1
