# generated using pymatgen
data_H2
_symmetry_space_group_name_H-M   'P 1'
_cell_length_a   2.66607200
_cell_length_b   5.37070050
_cell_length_c   7.39158024
_cell_angle_alpha   101.01451581
_cell_angle_beta   90.87574347
_cell_angle_gamma   95.88429955
_symmetry_Int_Tables_number   1
_chemical_formula_structural   H2
_chemical_formula_sum   H17
_cell_volume   103.27465794
_cell_formula_units_Z   8
loop_
 _symmetry_equiv_pos_site_id
 _symmetry_equiv_pos_as_xyz
  1  'x, y, z'
loop_
 _atom_site_type_symbol
 _atom_site_label
 _atom_site_symmetry_multiplicity
 _atom_site_fract_x
 _atom_site_fract_y
 _atom_site_fract_z
 _atom_site_occupancy
  H  H0  1  0.54882500  0.62858000  0.44453300  1
  H  H1  1  0.75800000  0.70210200  0.50160000  1
  H  H2  1  0.48082000  0.31533800  0.09936200  1
  H  H3  1  0.57883000  0.42814500  0.14336600  1
  H  H4  1  0.34125900  0.46915900  0.15260300  1
  H  H5  1  0.43323900  0.51834700  0.07370200  1
  H  H6  1  0.24418100  0.18323200  0.54727300  1
  H  H7  1  0.39735700  0.19638400  0.47041400  1
  H  H8  1  0.78877000  0.99288600  0.11049400  1
  H  H9  1  0.66551500  0.01965300  0.21158300  1
  H  H10  1  0.00635900  0.83053800  0.94513600  1
  H  H11  1  0.12791400  0.00078000  0.97640100  1
  H  H12  1  0.55743800  0.38339800  0.70845300  1
  H  H13  1  0.68583300  0.45691100  0.80166900  1
  H  H14  1  0.48792200  0.09616300  0.84174200  1
  H  H15  1  0.82044200  0.09929100  0.82965700  1
  H  H16  1  0.09928200  0.29823500  0.81852800  1
