# generated using pymatgen
data_H2
_symmetry_space_group_name_H-M   'P 1'
_cell_length_a   2.70933600
_cell_length_b   5.27027101
_cell_length_c   6.59622518
_cell_angle_alpha   87.72261193
_cell_angle_beta   78.51786759
_cell_angle_gamma   80.85123167
_symmetry_Int_Tables_number   1
_chemical_formula_structural   H2
_chemical_formula_sum   H15
_cell_volume   91.12471486
_cell_formula_units_Z   7
loop_
 _symmetry_equiv_pos_site_id
 _symmetry_equiv_pos_as_xyz
  1  'x, y, z'
loop_
 _atom_site_type_symbol
 _atom_site_label
 _atom_site_symmetry_multiplicity
 _atom_site_fract_x
 _atom_site_fract_y
 _atom_site_fract_z
 _atom_site_occupancy
  H  H0  1  0.48441500  0.85352500  0.85538500  1
  H  H1  1  0.82446200  0.85859400  0.83863500  1
  H  H2  1  0.19199900  0.55745400  0.83057100  1
  H  H3  1  0.78974800  0.36602100  0.64582000  1
  H  H4  1  0.75299000  0.22234800  0.65293700  1
  H  H5  1  0.13504800  0.08145600  0.46408800  1
  H  H6  1  0.03177300  0.13982800  0.15373100  1
  H  H7  1  0.25222200  0.07083500  0.11626000  1
  H  H8  1  0.31606100  0.39358100  0.36805400  1
  H  H9  1  0.43398200  0.49670100  0.31097600  1
  H  H10  1  0.67841000  0.79675000  0.16005700  1
  H  H11  1  0.93237900  0.69534900  0.13961200  1
  H  H12  1  0.74522100  0.75761300  0.49045000  1
  H  H13  1  0.50005500  0.80605400  0.56189700  1
  H  H14  1  0.08449100  0.78195700  0.31469900  1
