# generated using pymatgen
data_SrNb6H17
_symmetry_space_group_name_H-M   'P 1'
_cell_length_a   5.62338200
_cell_length_b   5.74187327
_cell_length_c   6.93448143
_cell_angle_alpha   89.70839069
_cell_angle_beta   66.70216752
_cell_angle_gamma   82.83880717
_symmetry_Int_Tables_number   1
_chemical_formula_structural   SrNb6H17
_chemical_formula_sum   'Sr1 Nb6 H17'
_cell_volume   203.80423983
_cell_formula_units_Z   1
loop_
 _symmetry_equiv_pos_site_id
 _symmetry_equiv_pos_as_xyz
  1  'x, y, z'
loop_
 _atom_site_type_symbol
 _atom_site_label
 _atom_site_symmetry_multiplicity
 _atom_site_fract_x
 _atom_site_fract_y
 _atom_site_fract_z
 _atom_site_occupancy
  H  H0  1  0.97068200  0.51815300  0.19850200  1
  H  H1  1  0.75266300  0.62372900  0.30921800  1
  Nb  Nb2  1  0.50000000  0.50000000  0.43288400  1
  H  H3  1  0.24733700  0.37627100  0.55655100  1
  Nb  Nb4  1  0.00000000  0.50000000  0.93288400  1
  H  H5  1  0.27500300  0.58745700  0.79545600  1
  Nb  Nb6  1  0.50000000  1.00000000  0.43288400  1
  H  H7  1  0.72495400  0.13745700  0.34545900  1
  H  H8  1  0.27504600  0.86254300  0.52031000  1
  Sr  Sr9  1  1.00000000  0.00000000  0.93288500  1
  H  H10  1  0.27500800  0.13755100  0.79531300  1
  Nb  Nb11  1  0.50000000  0.00000000  0.93288400  1
  H  H12  1  0.72495200  0.13759800  0.79536100  1
  Nb  Nb13  1  0.50000000  0.50000000  0.93288400  1
  H  H14  1  0.75266200  0.62363000  0.80388900  1
  H  H15  1  0.35949300  0.70513500  0.18668200  1
  H  H16  1  0.24730600  0.62369800  0.30918200  1
  H  H17  1  0.44806500  0.86953000  0.18769500  1
  H  H18  1  0.46836000  0.40865000  0.18159600  1
  Nb  Nb19  1  0.00000000  1.00000000  0.43288400  1
  H  H20  1  0.24732000  0.12899700  0.30927300  1
  H  H21  1  0.75268000  0.87100400  0.55649500  1
  H  H22  1  0.04472400  0.96336400  0.18305500  1
  H  H23  1  0.75269400  0.37630200  0.55658700  1
