# generated using pymatgen
data_H2
_symmetry_space_group_name_H-M   'P 1'
_cell_length_a   3.20231200
_cell_length_b   5.82966389
_cell_length_c   8.59886669
_cell_angle_alpha   72.98656575
_cell_angle_beta   83.52561967
_cell_angle_gamma   83.07862925
_symmetry_Int_Tables_number   1
_chemical_formula_structural   H2
_chemical_formula_sum   H25
_cell_volume   151.87449180
_cell_formula_units_Z   12
loop_
 _symmetry_equiv_pos_site_id
 _symmetry_equiv_pos_as_xyz
  1  'x, y, z'
loop_
 _atom_site_type_symbol
 _atom_site_label
 _atom_site_symmetry_multiplicity
 _atom_site_fract_x
 _atom_site_fract_y
 _atom_site_fract_z
 _atom_site_occupancy
  H  H0  1  0.30021500  0.53256800  0.21061300  1
  H  H1  1  0.37889200  0.47199300  0.21998300  1
  H  H2  1  0.63261900  0.65052000  0.23090300  1
  H  H3  1  0.90304100  0.95399500  0.33205900  1
  H  H4  1  0.91304800  0.10366200  0.35056400  1
  H  H5  1  0.77971800  0.86492500  0.58253400  1
  H  H6  1  0.78691600  0.87495000  0.51392300  1
  H  H7  1  0.51492200  0.06849500  0.52718700  1
  H  H8  1  0.41504500  0.00392100  0.59792700  1
  H  H9  1  0.67017700  0.40244900  0.38838500  1
  H  H10  1  0.81489400  0.51665800  0.47199100  1
  H  H11  1  0.60405200  0.95245800  0.93059600  1
  H  H12  1  0.79911700  0.93400100  0.94047000  1
  H  H13  1  0.52146200  0.28609200  0.79150700  1
  H  H14  1  0.65516500  0.22067000  0.76703500  1
  H  H15  1  0.80619600  0.10219900  0.81873300  1
  H  H16  1  0.88045300  0.30815300  0.76547200  1
  H  H17  1  0.16233000  0.32153100  0.78840900  1
  H  H18  1  0.26160100  0.24736600  0.66164200  1
  H  H19  1  0.96683300  0.59796000  0.68285000  1
  H  H20  1  0.91839400  0.51671900  0.81436500  1
  H  H21  1  0.64146700  0.49062700  0.65994800  1
  H  H22  1  0.94367600  0.94418400  0.14010900  1
  H  H23  1  0.87636900  0.32340700  0.00196800  1
  H  H24  1  0.36786700  0.74904900  0.75877700  1
