# generated using pymatgen
data_Sr2NbH13
_symmetry_space_group_name_H-M   'P 1'
_cell_length_a   5.22496400
_cell_length_b   5.34692448
_cell_length_c   6.32573861
_cell_angle_alpha   107.21560516
_cell_angle_beta   91.43169691
_cell_angle_gamma   92.90253611
_symmetry_Int_Tables_number   1
_chemical_formula_structural   Sr2NbH13
_chemical_formula_sum   'Sr2 Nb1 H13'
_cell_volume   168.44294279
_cell_formula_units_Z   1
loop_
 _symmetry_equiv_pos_site_id
 _symmetry_equiv_pos_as_xyz
  1  'x, y, z'
loop_
 _atom_site_type_symbol
 _atom_site_label
 _atom_site_symmetry_multiplicity
 _atom_site_fract_x
 _atom_site_fract_y
 _atom_site_fract_z
 _atom_site_occupancy
  H  H0  1  0.44807200  0.83793300  0.76577000  1
  H  H1  1  0.43071600  0.72096200  0.81863200  1
  H  H2  1  0.76783900  0.76814500  0.06805300  1
  H  H3  1  0.65058500  0.64772500  0.08320900  1
  H  H4  1  0.92949700  0.02459100  0.27398600  1
  H  H5  1  0.93000900  0.69662900  0.33353200  1
  Nb  Nb6  1  0.21888600  0.92293600  0.45985000  1
  H  H7  1  0.64458000  0.90033900  0.44089200  1
  H  H8  1  0.17912300  0.51058300  0.44898800  1
  H  H9  1  0.68741700  0.48727500  0.44628100  1
  H  H10  1  0.93667300  0.81421500  0.65426100  1
  H  H11  1  0.90996200  0.34438700  0.12956200  1
  H  H12  1  0.17770600  0.66987300  0.10305300  1
  H  H13  1  0.44313800  0.28127000  0.82352700  1
  Sr  Sr14  1  0.40198500  0.15236700  0.18379700  1
  Sr  Sr15  1  0.94509200  0.32530400  0.72075200  1
