# generated using pymatgen
data_SrNbH6
_symmetry_space_group_name_H-M   'P 1'
_cell_length_a   2.93088000
_cell_length_b   4.11648541
_cell_length_c   13.43578700
_cell_angle_alpha   93.27136654
_cell_angle_beta   92.23909809
_cell_angle_gamma   104.37924639
_symmetry_Int_Tables_number   1
_chemical_formula_structural   SrNbH6
_chemical_formula_sum   'Sr1 Nb1 H6'
_cell_volume   156.53000359
_cell_formula_units_Z   1
loop_
 _symmetry_equiv_pos_site_id
 _symmetry_equiv_pos_as_xyz
  1  'x, y, z'
loop_
 _atom_site_type_symbol
 _atom_site_label
 _atom_site_symmetry_multiplicity
 _atom_site_fract_x
 _atom_site_fract_y
 _atom_site_fract_z
 _atom_site_occupancy
  H  H0  1  0.72948700  0.57396700  0.52308100  1
  H  H1  1  0.50922100  0.49014700  0.41945000  1
  H  H2  1  0.08159100  0.12738000  0.50438000  1
  H  H3  1  0.89933200  0.60898600  0.09659800  1
  Nb  Nb4  1  0.66357700  0.53405100  0.19527800  1
  Sr  Sr5  1  0.17733800  0.92221300  0.29202300  1
  H  H6  1  0.92403700  0.47461700  0.78055000  1
  H  H7  1  0.99308600  0.33448300  0.94042400  1
