# generated using pymatgen
data_H2
_symmetry_space_group_name_H-M   'P 1'
_cell_length_a   4.44222400
_cell_length_b   5.08274816
_cell_length_c   5.37706744
_cell_angle_alpha   64.37474692
_cell_angle_beta   88.92374430
_cell_angle_gamma   87.36082787
_symmetry_Int_Tables_number   1
_chemical_formula_structural   H2
_chemical_formula_sum   H18
_cell_volume   109.34965771
_cell_formula_units_Z   9
loop_
 _symmetry_equiv_pos_site_id
 _symmetry_equiv_pos_as_xyz
  1  'x, y, z'
loop_
 _atom_site_type_symbol
 _atom_site_label
 _atom_site_symmetry_multiplicity
 _atom_site_fract_x
 _atom_site_fract_y
 _atom_site_fract_z
 _atom_site_occupancy
  H  H0  1  0.69993200  0.89178600  0.29056100  1
  H  H1  1  0.63580800  0.03536300  0.16860100  1
  H  H2  1  0.58679200  0.38699800  0.27723800  1
  H  H3  1  0.55157900  0.55258200  0.17892200  1
  H  H4  1  0.55659100  0.06597700  0.74634400  1
  H  H5  1  0.58320500  0.93449200  0.70696700  1
  H  H6  1  0.08728400  0.32387800  0.47519400  1
  H  H7  1  0.09624800  0.12678500  0.46929200  1
  H  H8  1  0.13716600  0.92413000  0.47491500  1
  H  H9  1  0.12146100  0.52138300  0.47679300  1
  H  H10  1  0.15165800  0.72010300  0.47787500  1
  H  H11  1  0.73747500  0.47035400  0.79014800  1
  H  H12  1  0.59479700  0.50964200  0.69453200  1
  H  H13  1  0.19663500  0.29714600  0.99454900  1
  H  H14  1  0.13667800  0.43712400  0.97587500  1
  H  H15  1  0.15926400  0.16264800  0.96664800  1
  H  H16  1  0.10432400  0.75668800  0.90394000  1
  H  H17  1  0.01127800  0.71858700  0.04013300  1
