# generated using pymatgen
data_Sr(NbH5)2
_symmetry_space_group_name_H-M   'P 1'
_cell_length_a   3.19532600
_cell_length_b   5.09557726
_cell_length_c   7.37206233
_cell_angle_alpha   101.38419828
_cell_angle_beta   96.64466191
_cell_angle_gamma   93.95635158
_symmetry_Int_Tables_number   1
_chemical_formula_structural   Sr(NbH5)2
_chemical_formula_sum   'Sr1 Nb2 H10'
_cell_volume   116.35919812
_cell_formula_units_Z   1
loop_
 _symmetry_equiv_pos_site_id
 _symmetry_equiv_pos_as_xyz
  1  'x, y, z'
loop_
 _atom_site_type_symbol
 _atom_site_label
 _atom_site_symmetry_multiplicity
 _atom_site_fract_x
 _atom_site_fract_y
 _atom_site_fract_z
 _atom_site_occupancy
  Nb  Nb0  1  0.00970700  0.03962300  0.41697600  1
  H  H1  1  0.96448600  0.87276000  0.50160000  1
  H  H2  1  0.07798000  0.60423200  0.54863700  1
  H  H3  1  0.57472300  0.10549500  0.55001700  1
  H  H4  1  0.31232700  0.95190300  0.82309700  1
  H  H5  1  0.49775700  0.88465000  0.78102100  1
  H  H6  1  0.20574100  0.73479400  0.81028600  1
  Nb  Nb7  1  0.64622200  0.67426700  0.68956900  1
  H  H8  1  0.77742900  0.80277900  0.95227100  1
  H  H9  1  0.70631100  0.23371600  0.80927500  1
  H  H10  1  0.93810100  0.47039900  0.27603800  1
  H  H11  1  0.34687200  0.91000400  0.19944600  1
  Sr  Sr12  1  0.32217700  0.35071100  0.04438300  1
