# generated using pymatgen
data_SrNbH19
_symmetry_space_group_name_H-M   'P 1'
_cell_length_a   4.84069700
_cell_length_b   5.33865410
_cell_length_c   6.76597448
_cell_angle_alpha   89.03165154
_cell_angle_beta   89.34142875
_cell_angle_gamma   69.52935305
_symmetry_Int_Tables_number   1
_chemical_formula_structural   SrNbH19
_chemical_formula_sum   'Sr1 Nb1 H19'
_cell_volume   163.78383681
_cell_formula_units_Z   1
loop_
 _symmetry_equiv_pos_site_id
 _symmetry_equiv_pos_as_xyz
  1  'x, y, z'
loop_
 _atom_site_type_symbol
 _atom_site_label
 _atom_site_symmetry_multiplicity
 _atom_site_fract_x
 _atom_site_fract_y
 _atom_site_fract_z
 _atom_site_occupancy
  H  H0  1  0.91985100  0.74556100  0.26957900  1
  H  H1  1  0.79912700  0.69749600  0.29905300  1
  H  H2  1  0.36237900  0.76577000  0.55192800  1
  H  H3  1  0.47935100  0.81863200  0.56928400  1
  H  H4  1  0.91985100  0.74556100  0.76957900  1
  H  H5  1  0.79912700  0.69749600  0.79905300  1
  H  H6  1  0.27737700  0.45985000  0.78111400  1
  H  H7  1  0.72102300  0.44711000  0.60541000  1
  Sr  Sr8  1  0.04794600  0.18379700  0.59801500  1
  H  H9  1  0.73892000  0.29579300  0.37378600  1
  H  H10  1  0.86689800  0.17540600  0.33034600  1
  H  H11  1  0.43216800  0.06805300  0.23216100  1
  H  H12  1  0.55258800  0.08320900  0.34941500  1
  H  H13  1  0.73892000  0.29579300  0.87378600  1
  H  H14  1  0.86689800  0.17540600  0.83034600  1
  H  H15  1  0.72102300  0.44711000  0.10541000  1
  Nb  Nb16  1  0.50368300  0.33353200  0.06999100  1
  H  H17  1  0.38609700  0.65426100  0.06332700  1
  H  H18  1  0.53043900  0.10305300  0.82229400  1
  H  H19  1  0.17572100  0.27398600  0.07050300  1
  H  H20  1  0.29997300  0.44089200  0.35542000  1
