# generated using pymatgen
data_SrNb2H21
_symmetry_space_group_name_H-M   'P 1'
_cell_length_a   4.20685100
_cell_length_b   5.77917126
_cell_length_c   7.58206900
_cell_angle_alpha   87.45484707
_cell_angle_beta   84.34930155
_cell_angle_gamma   88.11502277
_symmetry_Int_Tables_number   1
_chemical_formula_structural   SrNb2H21
_chemical_formula_sum   'Sr1 Nb2 H21'
_cell_volume   183.18397683
_cell_formula_units_Z   1
loop_
 _symmetry_equiv_pos_site_id
 _symmetry_equiv_pos_as_xyz
  1  'x, y, z'
loop_
 _atom_site_type_symbol
 _atom_site_label
 _atom_site_symmetry_multiplicity
 _atom_site_fract_x
 _atom_site_fract_y
 _atom_site_fract_z
 _atom_site_occupancy
  H  H0  1  0.17828400  0.90105300  0.71496100  1
  H  H1  1  0.55987300  0.89126000  0.71734800  1
  H  H2  1  0.58129000  0.73871900  0.97160700  1
  H  H3  1  0.69949400  0.61617700  0.97325800  1
  H  H4  1  0.06200600  0.22804000  0.89143700  1
  H  H5  1  0.97743700  0.38871400  0.04772900  1
  Nb  Nb6  1  0.84892500  0.82311100  0.31043100  1
  H  H7  1  0.90945200  0.60287100  0.18971400  1
  H  H8  1  0.34357300  0.63724000  0.31944500  1
  H  H9  1  0.47637300  0.67791500  0.36192900  1
  H  H10  1  0.77889000  0.53899000  0.45136300  1
  H  H11  1  0.12123000  0.67960300  0.94980800  1
  H  H12  1  0.97743700  0.88871400  0.04772900  1
  H  H13  1  0.37198300  0.14423800  0.10303100  1
  H  H14  1  0.36571100  0.07716900  0.19017300  1
  H  H15  1  0.16275300  0.14984600  0.38158100  1
  H  H16  1  0.09545800  0.08573100  0.45758700  1
  H  H17  1  0.61869500  0.22915800  0.36334700  1
  H  H18  1  0.69751400  0.16906800  0.44071200  1
  H  H19  1  0.77889000  0.03899000  0.45136300  1
  Nb  Nb20  1  0.84892500  0.32311100  0.31043100  1
  H  H21  1  0.90945200  0.10287100  0.18971400  1
  H  H22  1  0.64840100  0.22573300  0.92704200  1
  Sr  Sr23  1  0.35957600  0.39348000  0.69191300  1
