# generated using pymatgen
data_H2
_symmetry_space_group_name_H-M   'P 1'
_cell_length_a   5.21271700
_cell_length_b   5.30761992
_cell_length_c   5.89944956
_cell_angle_alpha   105.32113266
_cell_angle_beta   96.96334643
_cell_angle_gamma   101.13680633
_symmetry_Int_Tables_number   1
_chemical_formula_structural   H2
_chemical_formula_sum   H25
_cell_volume   151.87453332
_cell_formula_units_Z   12
loop_
 _symmetry_equiv_pos_site_id
 _symmetry_equiv_pos_as_xyz
  1  'x, y, z'
loop_
 _atom_site_type_symbol
 _atom_site_label
 _atom_site_symmetry_multiplicity
 _atom_site_fract_x
 _atom_site_fract_y
 _atom_site_fract_z
 _atom_site_occupancy
  H  H0  1  0.49258300  0.28985900  0.82522300  1
  H  H1  1  0.41257500  0.27504600  0.84365800  1
  H  H2  1  0.15410500  0.98167700  0.51439400  1
  H  H3  1  0.26046400  0.07872800  0.55130500  1
  H  H4  1  0.95026700  0.45203900  0.18062700  1
  H  H5  1  0.14161300  0.48603400  0.17123000  1
  H  H6  1  0.33883000  0.50232700  0.16868000  1
  H  H7  1  0.75154600  0.45295200  0.18506100  1
  H  H8  1  0.54431600  0.48036800  0.17633500  1
  H  H9  1  0.89912600  0.94466500  0.15407700  1
  H  H10  1  0.80721800  0.92506000  0.23166200  1
  H  H11  1  0.60407400  0.76055100  0.45860300  1
  H  H12  1  0.73404900  0.68029800  0.53274000  1
  H  H13  1  0.03937400  0.94891500  0.81945600  1
  H  H14  1  0.86242900  0.72499200  0.84375200  1
  H  H15  1  0.34593500  0.00782000  0.11202000  1
  H  H16  1  0.31517900  0.02391400  0.22259700  1
  H  H17  1  0.49423600  0.74639700  0.80008900  1
  H  H18  1  0.37638900  0.75268000  0.83519700  1
  H  H19  1  0.17356600  0.54068500  0.57477200  1
  H  H20  1  0.27889900  0.51899700  0.50400500  1
  H  H21  1  0.66810600  0.23435400  0.43951300  1
  H  H22  1  0.68581400  0.18146600  0.55292300  1
  H  H23  1  0.99400500  0.37738100  0.75816200  1
  H  H24  1  0.86247600  0.27504800  0.84379900  1
