# generated using pymatgen
data_SrNbH6
_symmetry_space_group_name_H-M   'P 1'
_cell_length_a   4.36845400
_cell_length_b   4.42043968
_cell_length_c   8.48380402
_cell_angle_alpha   97.57754049
_cell_angle_beta   95.00462190
_cell_angle_gamma   74.87347664
_symmetry_Int_Tables_number   1
_chemical_formula_structural   SrNbH6
_chemical_formula_sum   'Sr1 Nb1 H6'
_cell_volume   156.52999740
_cell_formula_units_Z   1
loop_
 _symmetry_equiv_pos_site_id
 _symmetry_equiv_pos_as_xyz
  1  'x, y, z'
loop_
 _atom_site_type_symbol
 _atom_site_label
 _atom_site_symmetry_multiplicity
 _atom_site_fract_x
 _atom_site_fract_y
 _atom_site_fract_z
 _atom_site_occupancy
  H  H0  1  0.47012800  0.96544400  0.00533400  1
  H  H1  1  0.35072400  0.85078800  0.05687600  1
  H  H2  1  0.54005600  0.94784400  0.77634300  1
  Sr  Sr3  1  0.75352000  0.74711700  0.89613800  1
  H  H4  1  0.84830200  0.75151700  0.53553900  1
  H  H5  1  0.72626100  0.46265200  0.37177000  1
  H  H6  1  0.63227700  0.89297700  0.31722500  1
  Nb  Nb7  1  0.76050400  0.24366700  0.62644700  1
