# generated using pymatgen
data_H2
_symmetry_space_group_name_H-M   'P 1'
_cell_length_a   2.55274800
_cell_length_b   4.47711238
_cell_length_c   9.20399552
_cell_angle_alpha   85.18673251
_cell_angle_beta   85.35603570
_cell_angle_gamma   80.96556744
_symmetry_Int_Tables_number   1
_chemical_formula_structural   H2
_chemical_formula_sum   H17
_cell_volume   103.27467094
_cell_formula_units_Z   8
loop_
 _symmetry_equiv_pos_site_id
 _symmetry_equiv_pos_as_xyz
  1  'x, y, z'
loop_
 _atom_site_type_symbol
 _atom_site_label
 _atom_site_symmetry_multiplicity
 _atom_site_fract_x
 _atom_site_fract_y
 _atom_site_fract_z
 _atom_site_occupancy
  H  H0  1  0.47166900  0.93710000  0.77666600  1
  H  H1  1  0.45844100  0.84592800  0.78370100  1
  H  H2  1  0.66156400  0.01406300  0.93730500  1
  H  H3  1  0.69953700  0.14484000  0.89089000  1
  H  H4  1  0.22147300  0.16648800  0.75464100  1
  H  H5  1  0.54941600  0.17732500  0.74989100  1
  H  H6  1  0.03058600  0.27101400  0.84418900  1
  H  H7  1  0.12329100  0.57147600  0.00646100  1
  H  H8  1  0.84640100  0.75719000  0.94334100  1
  H  H9  1  0.10724500  0.59856900  0.80476500  1
  H  H10  1  0.35073900  0.18967300  0.09929100  1
  H  H11  1  0.62782700  0.92894400  0.14163100  1
  H  H12  1  0.86847300  0.35700100  0.16484400  1
  H  H13  1  0.75321100  0.12611500  0.32482600  1
  H  H14  1  0.54465200  0.13475400  0.45225700  1
  H  H15  1  0.31947600  0.41337500  0.48332500  1
  H  H16  1  0.08611000  0.79724600  0.45827100  1
