# generated using pymatgen
data_Sr(NbH6)3
_symmetry_space_group_name_H-M   'P 1'
_cell_length_a   5.18554700
_cell_length_b   5.82236484
_cell_length_c   6.43646296
_cell_angle_alpha   84.10848954
_cell_angle_beta   66.32775214
_cell_angle_gamma   75.37110561
_symmetry_Int_Tables_number   1
_chemical_formula_structural   Sr(NbH6)3
_chemical_formula_sum   'Sr1 Nb3 H18'
_cell_volume   172.20919609
_cell_formula_units_Z   1
loop_
 _symmetry_equiv_pos_site_id
 _symmetry_equiv_pos_as_xyz
  1  'x, y, z'
loop_
 _atom_site_type_symbol
 _atom_site_label
 _atom_site_symmetry_multiplicity
 _atom_site_fract_x
 _atom_site_fract_y
 _atom_site_fract_z
 _atom_site_occupancy
  H  H0  1  0.78421700  0.83729800  0.63612500  1
  H  H1  1  0.66043000  0.68859600  0.85675700  1
  H  H2  1  0.63129000  0.59623300  0.10585800  1
  H  H3  1  0.40272700  0.75582400  0.32155400  1
  Nb  Nb4  1  0.07426000  0.59327100  0.46437600  1
  H  H5  1  0.96359200  0.79478400  0.32347500  1
  H  H6  1  0.32015000  0.34092600  0.83504100  1
  H  H7  1  0.25006900  0.44241900  0.62024400  1
  H  H8  1  0.89434900  0.22127300  0.05801300  1
  Nb  Nb9  1  0.93158000  0.43402400  0.85233200  1
  H  H10  1  0.62508100  0.07806500  0.11026500  1
  H  H11  1  0.16680400  0.68331100  0.86181500  1
  H  H12  1  0.23666700  0.82497400  0.62753500  1
  Nb  Nb13  1  0.90570300  0.93349100  0.85838200  1
  H  H14  1  0.04805500  0.14294400  0.68715600  1
  H  H15  1  0.64677700  0.17653600  0.84179100  1
  H  H16  1  0.69790300  0.59279600  0.46508700  1
  H  H17  1  0.79618000  0.42265900  0.62993100  1
  H  H18  1  0.96162100  0.32977000  0.31559300  1
  H  H19  1  0.39494900  0.35575100  0.31549100  1
  H  H20  1  0.27024100  0.96589600  0.92153800  1
  Sr  Sr21  1  0.58937700  0.09558800  0.47278000  1
