# generated using pymatgen
data_H2
_symmetry_space_group_name_H-M   'P 1'
_cell_length_a   4.93704000
_cell_length_b   4.96755898
_cell_length_c   6.34473666
_cell_angle_alpha   85.69061092
_cell_angle_beta   78.19195161
_cell_angle_gamma   89.65514313
_symmetry_Int_Tables_number   1
_chemical_formula_structural   H2
_chemical_formula_sum   H25
_cell_volume   151.87450257
_cell_formula_units_Z   12
loop_
 _symmetry_equiv_pos_site_id
 _symmetry_equiv_pos_as_xyz
  1  'x, y, z'
loop_
 _atom_site_type_symbol
 _atom_site_label
 _atom_site_symmetry_multiplicity
 _atom_site_fract_x
 _atom_site_fract_y
 _atom_site_fract_z
 _atom_site_occupancy
  H  H0  1  0.37826600  0.00082700  0.10490700  1
  H  H1  1  0.29340300  0.10691600  0.09950000  1
  H  H2  1  0.32894800  0.89424900  0.24959900  1
  H  H3  1  0.24452900  0.75689900  0.24188100  1
  H  H4  1  0.00158500  0.09004200  0.43983800  1
  H  H5  1  0.01543700  0.25627400  0.43525200  1
  H  H6  1  0.90162100  0.86596600  0.55067100  1
  H  H7  1  0.33526200  0.85408600  0.55020100  1
  H  H8  1  0.43354600  0.09983800  0.56962300  1
  H  H9  1  0.78445400  0.83594400  0.17765400  1
  H  H10  1  0.79226800  0.84378700  0.28477600  1
  H  H11  1  0.83400400  0.10477500  0.06957900  1
  H  H12  1  0.40327900  0.47430800  0.89191200  1
  H  H13  1  0.41899200  0.64826200  0.86744800  1
  H  H14  1  0.61314900  0.22529900  0.84331500  1
  H  H15  1  0.67146800  0.32838700  0.78274900  1
  H  H16  1  0.17024200  0.26225300  0.81643200  1
  H  H17  1  0.06437200  0.35309700  0.82470600  1
  H  H18  1  0.90444400  0.49365800  0.77832000  1
  H  H19  1  0.01486800  0.55353100  0.81931400  1
  H  H20  1  0.70308800  0.94482300  0.88920800  1
  H  H21  1  0.57631100  0.35905000  0.34831300  1
  H  H22  1  0.61492500  0.24316500  0.30107100  1
  H  H23  1  0.54508100  0.42994600  0.17359800  1
  H  H24  1  0.57463400  0.47474700  0.57287600  1
