# generated using pymatgen
data_Sr2NbH22
_symmetry_space_group_name_H-M   'P 1'
_cell_length_a   5.83786300
_cell_length_b   6.10357944
_cell_length_c   6.70668091
_cell_angle_alpha   78.48189911
_cell_angle_beta   78.46489974
_cell_angle_gamma   74.71762543
_symmetry_Int_Tables_number   1
_chemical_formula_structural   Sr2NbH22
_chemical_formula_sum   'Sr2 Nb1 H22'
_cell_volume   223.11775136
_cell_formula_units_Z   1
loop_
 _symmetry_equiv_pos_site_id
 _symmetry_equiv_pos_as_xyz
  1  'x, y, z'
loop_
 _atom_site_type_symbol
 _atom_site_label
 _atom_site_symmetry_multiplicity
 _atom_site_fract_x
 _atom_site_fract_y
 _atom_site_fract_z
 _atom_site_occupancy
  H  H0  1  0.20215800  0.11753500  0.16857100  1
  H  H1  1  0.18439000  0.22658000  0.11799000  1
  H  H2  1  0.02649000  0.13331300  0.23853200  1
  Nb  Nb3  1  0.58493200  0.12201900  0.61305300  1
  H  H4  1  0.86644200  0.11346600  0.63341000  1
  H  H5  1  0.58060900  0.25762400  0.80802100  1
  H  H6  1  0.55084900  0.85372900  0.62592500  1
  H  H7  1  0.40033700  0.03704600  0.82874700  1
  H  H8  1  0.81212300  0.94610100  0.44130300  1
  H  H9  1  0.70215800  0.11753500  0.16857100  1
  H  H10  1  0.68439000  0.22658000  0.11799000  1
  H  H11  1  0.66086600  0.82848200  0.02348300  1
  H  H12  1  0.51793900  0.89843200  0.21805600  1
  H  H13  1  0.77696100  0.84449600  0.79826100  1
  H  H14  1  0.82654500  0.55745400  0.17235000  1
  H  H15  1  0.41443800  0.20919500  0.38429700  1
  H  H16  1  0.59221700  0.41815500  0.44397000  1
  H  H17  1  0.89226900  0.36401900  0.88200200  1
  H  H18  1  0.28757000  0.38152200  0.63513800  1
  H  H19  1  0.32654500  0.55745400  0.17235000  1
  H  H20  1  0.18196600  0.67359100  0.27451300  1
  H  H21  1  0.16086600  0.82848200  0.02348300  1
  H  H22  1  0.23432100  0.70350900  0.88448700  1
  Sr  Sr23  1  0.24019500  0.82210000  0.51189400  1
  Sr  Sr24  1  0.90363300  0.50501200  0.51292100  1
