# generated using pymatgen
data_H2
_symmetry_space_group_name_H-M   'P 1'
_cell_length_a   2.67790000
_cell_length_b   5.27417420
_cell_length_c   7.41482534
_cell_angle_alpha   86.13055106
_cell_angle_beta   84.31947264
_cell_angle_gamma   83.01818097
_symmetry_Int_Tables_number   1
_chemical_formula_structural   H2
_chemical_formula_sum   H17
_cell_volume   103.27468956
_cell_formula_units_Z   8
loop_
 _symmetry_equiv_pos_site_id
 _symmetry_equiv_pos_as_xyz
  1  'x, y, z'
loop_
 _atom_site_type_symbol
 _atom_site_label
 _atom_site_symmetry_multiplicity
 _atom_site_fract_x
 _atom_site_fract_y
 _atom_site_fract_z
 _atom_site_occupancy
  H  H0  1  0.34767000  0.62923500  0.50551500  1
  H  H1  1  0.48905800  0.53217700  0.53846200  1
  H  H2  1  0.55531600  0.95228500  0.97338100  1
  H  H3  1  0.72390600  0.94265100  0.04532300  1
  H  H4  1  0.73211200  0.86380000  0.63796700  1
  H  H5  1  0.82260900  0.96078400  0.68170400  1
  H  H6  1  0.53452900  0.16004600  0.77406000  1
  H  H7  1  0.39982400  0.05196700  0.72916300  1
  H  H8  1  0.26996900  0.63103100  0.90660200  1
  H  H9  1  0.15396800  0.68975600  0.83057100  1
  H  H10  1  0.63274900  0.52426000  0.11480300  1
  H  H11  1  0.52539500  0.59891900  0.19456900  1
  H  H12  1  0.45662500  0.28938000  0.17272800  1
  H  H13  1  0.95777000  0.80020500  0.30592200  1
  H  H14  1  0.04646000  0.91425900  0.31469900  1
  H  H15  1  0.99859600  0.16603500  0.41494700  1
  H  H16  1  0.13586000  0.24301900  0.47900500  1
