# generated using pymatgen
data_H2
_symmetry_space_group_name_H-M   'P 1'
_cell_length_a   2.43230600
_cell_length_b   4.36694748
_cell_length_c   6.86647338
_cell_angle_alpha   89.44396927
_cell_angle_beta   89.77197525
_cell_angle_gamma   88.34872257
_symmetry_Int_Tables_number   1
_chemical_formula_structural   H2
_chemical_formula_sum   H12
_cell_volume   72.89976114
_cell_formula_units_Z   6
loop_
 _symmetry_equiv_pos_site_id
 _symmetry_equiv_pos_as_xyz
  1  'x, y, z'
loop_
 _atom_site_type_symbol
 _atom_site_label
 _atom_site_symmetry_multiplicity
 _atom_site_fract_x
 _atom_site_fract_y
 _atom_site_fract_z
 _atom_site_occupancy
  H  H0  1  0.63567900  0.87565800  0.49896900  1
  H  H1  1  0.80465400  0.94236800  0.55586200  1
  H  H2  1  0.44995500  0.36119900  0.65616600  1
  H  H3  1  0.61406300  0.44356000  0.69998600  1
  H  H4  1  0.94098200  0.35443600  0.37236000  1
  H  H5  1  0.07553000  0.45563100  0.41041600  1
  H  H6  1  0.39208700  0.83479300  0.20453900  1
  H  H7  1  0.23714600  0.72669800  0.20493700  1
  H  H8  1  0.73270000  0.16654000  0.12189600  1
  H  H9  1  0.48120400  0.26579900  0.15020200  1
  H  H10  1  0.66244800  0.16442000  0.99626800  1
  H  H11  1  0.54337500  0.00194400  0.95746200  1
