# generated using pymatgen
data_SrNbH6
_symmetry_space_group_name_H-M   'P 1'
_cell_length_a   5.21137400
_cell_length_b   5.34317922
_cell_length_c   6.58409242
_cell_angle_alpha   112.78432945
_cell_angle_beta   94.94660738
_cell_angle_gamma   107.77988891
_symmetry_Int_Tables_number   1
_chemical_formula_structural   SrNbH6
_chemical_formula_sum   'Sr1 Nb1 H6'
_cell_volume   156.53000850
_cell_formula_units_Z   1
loop_
 _symmetry_equiv_pos_site_id
 _symmetry_equiv_pos_as_xyz
  1  'x, y, z'
loop_
 _atom_site_type_symbol
 _atom_site_label
 _atom_site_symmetry_multiplicity
 _atom_site_fract_x
 _atom_site_fract_y
 _atom_site_fract_z
 _atom_site_occupancy
  H  H0  1  0.11975100  0.80545700  0.97885200  1
  H  H1  1  0.16442600  0.91144000  0.82324000  1
  H  H2  1  0.31051900  0.36242800  0.59191700  1
  Sr  Sr3  1  0.35714100  0.20228800  0.38960900  1
  H  H4  1  0.52553200  0.68851700  0.80221400  1
  H  H5  1  0.67647500  0.94848200  0.10809300  1
  H  H6  1  0.96884100  0.41320700  0.56642300  1
  Nb  Nb7  1  0.60524700  0.76919500  0.50640100  1
