# generated using pymatgen
data_H2
_symmetry_space_group_name_H-M   'P 1'
_cell_length_a   4.86443500
_cell_length_b   4.90561687
_cell_length_c   6.40262258
_cell_angle_alpha   101.00616162
_cell_angle_beta   99.58609290
_cell_angle_gamma   97.47280588
_symmetry_Int_Tables_number   1
_chemical_formula_structural   H2
_chemical_formula_sum   H24
_cell_volume   145.79955756
_cell_formula_units_Z   12
loop_
 _symmetry_equiv_pos_site_id
 _symmetry_equiv_pos_as_xyz
  1  'x, y, z'
loop_
 _atom_site_type_symbol
 _atom_site_label
 _atom_site_symmetry_multiplicity
 _atom_site_fract_x
 _atom_site_fract_y
 _atom_site_fract_z
 _atom_site_occupancy
  H  H0  1  0.25235800  0.96970900  0.18360700  1
  H  H1  1  0.35565100  0.07550800  0.15146200  1
  H  H2  1  0.46438600  0.24658100  0.82003400  1
  H  H3  1  0.46176200  0.44831200  0.83091500  1
  H  H4  1  0.45051600  0.84541100  0.82406800  1
  H  H5  1  0.44960600  0.64685100  0.82839600  1
  H  H6  1  0.45919500  0.04447100  0.81624100  1
  H  H7  1  0.79574400  0.84575700  0.10895700  1
  H  H8  1  0.75348500  0.89126000  0.21718100  1
  H  H9  1  0.10313000  0.85874300  0.54301300  1
  H  H10  1  0.02948300  0.75378400  0.44011300  1
  H  H11  1  0.16806600  0.39823900  0.51222600  1
  H  H12  1  0.20045700  0.25421800  0.46766700  1
  H  H13  1  0.22540300  0.48863500  0.19713600  1
  H  H14  1  0.29973500  0.54517800  0.11583800  1
  H  H15  1  0.72149000  0.42349900  0.16024400  1
  H  H16  1  0.80640400  0.30456000  0.15580400  1
  H  H17  1  0.66465400  0.30565300  0.56420000  1
  H  H18  1  0.71567300  0.29631200  0.45829400  1
  H  H19  1  0.96852100  0.60443900  0.87563300  1
  H  H20  1  0.93712300  0.70740100  0.80424800  1
  H  H21  1  0.99146000  0.13046500  0.88046800  1
  H  H22  1  0.95512700  0.17729300  0.77469600  1
  H  H23  1  0.54467400  0.84552000  0.47808600  1
