# generated using pymatgen
data_SrNbH8
_symmetry_space_group_name_H-M   'P 1'
_cell_length_a   3.93592000
_cell_length_b   4.02286349
_cell_length_c   6.27475813
_cell_angle_alpha   97.97485331
_cell_angle_beta   98.44616587
_cell_angle_gamma   93.69432441
_symmetry_Int_Tables_number   1
_chemical_formula_structural   SrNbH8
_chemical_formula_sum   'Sr1 Nb1 H8'
_cell_volume   96.95903403
_cell_formula_units_Z   1
loop_
 _symmetry_equiv_pos_site_id
 _symmetry_equiv_pos_as_xyz
  1  'x, y, z'
loop_
 _atom_site_type_symbol
 _atom_site_label
 _atom_site_symmetry_multiplicity
 _atom_site_fract_x
 _atom_site_fract_y
 _atom_site_fract_z
 _atom_site_occupancy
  H  H0  1  0.93810100  0.95127100  0.48384800  1
  H  H1  1  0.35492200  0.04708200  0.71106400  1
  H  H2  1  0.21486400  0.60354300  0.87397300  1
  H  H3  1  0.07283700  0.67217100  0.87169500  1
  Nb  Nb4  1  0.00970700  0.52049500  0.62478600  1
  H  H5  1  0.70631100  0.71458800  0.01708500  1
  H  H6  1  0.20574100  0.21566600  0.01809600  1
  H  H7  1  0.77742900  0.28365100  0.16008100  1
  H  H8  1  0.43962000  0.44742700  0.48248200  1
  Sr  Sr9  1  0.32217700  0.83158300  0.25219300  1
