# generated using pymatgen
data_H2
_symmetry_space_group_name_H-M   'P 1'
_cell_length_a   4.24432300
_cell_length_b   4.87077017
_cell_length_c   5.62207642
_cell_angle_alpha   106.65408457
_cell_angle_beta   96.80116841
_cell_angle_gamma   96.13285495
_symmetry_Int_Tables_number   1
_chemical_formula_structural   H2
_chemical_formula_sum   H18
_cell_volume   109.34963785
_cell_formula_units_Z   9
loop_
 _symmetry_equiv_pos_site_id
 _symmetry_equiv_pos_as_xyz
  1  'x, y, z'
loop_
 _atom_site_type_symbol
 _atom_site_label
 _atom_site_symmetry_multiplicity
 _atom_site_fract_x
 _atom_site_fract_y
 _atom_site_fract_z
 _atom_site_occupancy
  H  H0  1  0.17676000  0.49573700  0.72184300  1
  H  H1  1  0.16712800  0.64982800  0.81993200  1
  H  H2  1  0.63413000  0.47874700  0.07683300  1
  H  H3  1  0.46313200  0.46141400  0.03868600  1
  H  H4  1  0.73313600  0.27991900  0.87906800  1
  H  H5  1  0.72280000  0.16411700  0.94074400  1
  H  H6  1  0.70268700  0.95850400  0.92959900  1
  H  H7  1  0.73461400  0.79711500  0.86407300  1
  H  H8  1  0.63512900  0.27817200  0.51546200  1
  H  H9  1  0.52159600  0.34614700  0.45489400  1
  H  H10  1  0.49644000  0.69416700  0.53465700  1
  H  H11  1  0.44627600  0.59005300  0.40637400  1
  H  H12  1  0.92739500  0.12068000  0.32437500  1
  H  H13  1  0.04474600  0.10984500  0.24197400  1
  H  H14  1  0.01916800  0.79837700  0.37712000  1
  H  H15  1  0.87398500  0.85192600  0.32634900  1
  H  H16  1  0.37481200  0.95297000  0.24215800  1
  H  H17  1  0.19315100  0.07834800  0.68386300  1
