# generated using pymatgen
data_SrNbH18
_symmetry_space_group_name_H-M   'P 1'
_cell_length_a   4.69452200
_cell_length_b   5.36196332
_cell_length_c   6.29164092
_cell_angle_alpha   88.18515227
_cell_angle_beta   85.30569872
_cell_angle_gamma   88.37201189
_symmetry_Int_Tables_number   1
_chemical_formula_structural   SrNbH18
_chemical_formula_sum   'Sr1 Nb1 H18'
_cell_volume   157.70884509
_cell_formula_units_Z   1
loop_
 _symmetry_equiv_pos_site_id
 _symmetry_equiv_pos_as_xyz
  1  'x, y, z'
loop_
 _atom_site_type_symbol
 _atom_site_label
 _atom_site_symmetry_multiplicity
 _atom_site_fract_x
 _atom_site_fract_y
 _atom_site_fract_z
 _atom_site_occupancy
  H  H0  1  0.25235800  0.03029100  0.95993200  1
  H  H1  1  0.35565100  0.92449200  0.99207700  1
  H  H2  1  0.43390200  0.82521200  0.20985300  1
  H  H3  1  0.44172800  0.83613200  0.71068000  1
  H  H4  1  0.72149000  0.57650100  0.98329600  1
  H  H5  1  0.80640400  0.69544000  0.98773500  1
  H  H6  1  0.56633500  0.51397300  0.03063700  1
  H  H7  1  0.97788800  0.60799800  0.57814700  1
  H  H8  1  0.87011000  0.63796500  0.74617300  1
  Nb  Nb9  1  0.70833400  0.82977100  0.46322700  1
  H  H10  1  0.82769200  0.65180500  0.25760700  1
  H  H11  1  0.22540300  0.51136500  0.94640300  1
  H  H12  1  0.75348500  0.10874000  0.92635800  1
  H  H13  1  0.65119600  0.19239800  0.79949400  1
  H  H14  1  0.86814500  0.00773000  0.17149600  1
  H  H15  1  0.90342300  0.99288900  0.67040700  1
  H  H16  1  0.11212400  0.91087900  0.43774400  1
  H  H17  1  0.65185800  0.16481800  0.38856300  1
  H  H18  1  0.53523600  0.51952500  0.54251100  1
  Sr  Sr19  1  0.18196100  0.35821700  0.31638600  1
