# generated using pymatgen
data_H2
_symmetry_space_group_name_H-M   'P 1'
_cell_length_a   3.28015600
_cell_length_b   4.56742061
_cell_length_c   6.29465685
_cell_angle_alpha   84.68029017
_cell_angle_beta   83.74100455
_cell_angle_gamma   77.02948172
_symmetry_Int_Tables_number   1
_chemical_formula_structural   H2
_chemical_formula_sum   H15
_cell_volume   91.12470537
_cell_formula_units_Z   7
loop_
 _symmetry_equiv_pos_site_id
 _symmetry_equiv_pos_as_xyz
  1  'x, y, z'
loop_
 _atom_site_type_symbol
 _atom_site_label
 _atom_site_symmetry_multiplicity
 _atom_site_fract_x
 _atom_site_fract_y
 _atom_site_fract_z
 _atom_site_occupancy
  H  H0  1  0.68184700  0.77555500  0.12360100  1
  H  H1  1  0.59909700  0.92992700  0.05838500  1
  H  H2  1  0.36989000  0.99841500  0.84557200  1
  H  H3  1  0.70301900  0.99153500  0.84835100  1
  H  H4  1  0.03742600  0.98456300  0.85015800  1
  H  H5  1  0.35029800  0.56645400  0.71578700  1
  H  H6  1  0.56010100  0.64053200  0.67525000  1
  H  H7  1  0.02546700  0.82975800  0.46897800  1
  H  H8  1  0.84377900  0.93562800  0.46070400  1
  H  H9  1  0.83187300  0.42368900  0.93709700  1
  H  H10  1  0.06364400  0.38507500  0.98434000  1
  H  H11  1  0.29615400  0.49841700  0.25903900  1
  H  H12  1  0.22847500  0.46925700  0.17083200  1
  H  H13  1  0.09937600  0.38685100  0.44209600  1
  H  H14  1  0.89319900  0.32853200  0.50266100  1
