# generated using pymatgen
data_H2
_symmetry_space_group_name_H-M   'P 1'
_cell_length_a   2.82980400
_cell_length_b   5.50809598
_cell_length_c   7.54001977
_cell_angle_alpha   98.30471602
_cell_angle_beta   92.72982439
_cell_angle_gamma   95.98166698
_symmetry_Int_Tables_number   1
_chemical_formula_structural   H2
_chemical_formula_sum   H19
_cell_volume   115.42464898
_cell_formula_units_Z   9
loop_
 _symmetry_equiv_pos_site_id
 _symmetry_equiv_pos_as_xyz
  1  'x, y, z'
loop_
 _atom_site_type_symbol
 _atom_site_label
 _atom_site_symmetry_multiplicity
 _atom_site_fract_x
 _atom_site_fract_y
 _atom_site_fract_z
 _atom_site_occupancy
  H  H0  1  0.17926300  0.84733700  0.48676700  1
  H  H1  1  0.36920700  0.96162000  0.53453700  1
  H  H2  1  0.12125900  0.31210000  0.79902900  1
  H  H3  1  0.23145500  0.15995100  0.77869600  1
  H  H4  1  0.87200100  0.01965300  0.25271900  1
  H  H5  1  0.71908100  0.02124900  0.29704600  1
  H  H6  1  0.99525600  0.99288600  0.15163000  1
  H  H7  1  0.16702400  0.92127000  0.99810900  1
  H  H8  1  0.32643700  0.64156000  0.15796600  1
  H  H9  1  0.34687200  0.73934500  0.24058200  1
  H  H10  1  0.40309200  0.55062800  0.29515700  1
  H  H11  1  0.24919600  0.39871900  0.27782000  1
  H  H12  1  0.68730600  0.31533800  0.14049800  1
  H  H13  1  0.78531600  0.42814500  0.18450200  1
  H  H14  1  0.76767600  0.38358700  0.99837000  1
  H  H15  1  0.61600800  0.71405500  0.72269000  1
  H  H16  1  0.63581900  0.77006000  0.81142000  1
  H  H17  1  0.79903500  0.44878500  0.53866300  1
  H  H18  1  0.95427500  0.31579600  0.51773000  1
