# generated using pymatgen
data_H2
_symmetry_space_group_name_H-M   'P 1'
_cell_length_a   4.82904000
_cell_length_b   5.07934768
_cell_length_c   5.83973706
_cell_angle_alpha   72.38996100
_cell_angle_beta   78.54166152
_cell_angle_gamma   89.14112014
_symmetry_Int_Tables_number   1
_chemical_formula_structural   H2
_chemical_formula_sum   H22
_cell_volume   133.64955547
_cell_formula_units_Z   11
loop_
 _symmetry_equiv_pos_site_id
 _symmetry_equiv_pos_as_xyz
  1  'x, y, z'
loop_
 _atom_site_type_symbol
 _atom_site_label
 _atom_site_symmetry_multiplicity
 _atom_site_fract_x
 _atom_site_fract_y
 _atom_site_fract_z
 _atom_site_occupancy
  H  H0  1  0.29987700  0.20418500  0.72660100  1
  H  H1  1  0.41488100  0.13643000  0.65762100  1
  H  H2  1  0.29731300  0.97261700  0.92959900  1
  H  H3  1  0.91343400  0.22356100  0.99106600  1
  H  H4  1  0.87491300  0.30821000  0.88425200  1
  H  H5  1  0.19276400  0.37014000  0.08398900  1
  H  H6  1  0.29526300  0.44096700  0.96650200  1
  H  H7  1  0.25470400  0.71120900  0.61278300  1
  H  H8  1  0.37935200  0.62812100  0.69081800  1
  H  H9  1  0.89364700  0.82676800  0.80475900  1
  H  H10  1  0.73060600  0.87608000  0.78383100  1
  H  H11  1  0.81767700  0.03248700  0.68036600  1
  H  H12  1  0.87241100  0.41398300  0.50946100  1
  H  H13  1  0.73428300  0.46844300  0.48934400  1
  H  H14  1  0.00032700  0.69370700  0.25413900  1
  H  H15  1  0.09652300  0.56367500  0.32798600  1
  H  H16  1  0.59448200  0.39587900  0.21923900  1
  H  H17  1  0.44882300  0.40007900  0.28627700  1
  H  H18  1  0.62518800  0.97815100  0.24215800  1
  H  H19  1  0.54350600  0.83777700  0.24388700  1
  H  H20  1  0.76877500  0.06982700  0.34784300  1
  H  H21  1  0.13048400  0.05336500  0.37338500  1
