# generated using pymatgen
data_Sr2NbH9
_symmetry_space_group_name_H-M   'P 1'
_cell_length_a   5.37223900
_cell_length_b   6.02643807
_cell_length_c   8.45364287
_cell_angle_alpha   103.88981438
_cell_angle_beta   102.16710349
_cell_angle_gamma   99.35805548
_symmetry_Int_Tables_number   1
_chemical_formula_structural   Sr2NbH9
_chemical_formula_sum   'Sr2 Nb1 H9'
_cell_volume   253.07997229
_cell_formula_units_Z   1
loop_
 _symmetry_equiv_pos_site_id
 _symmetry_equiv_pos_as_xyz
  1  'x, y, z'
loop_
 _atom_site_type_symbol
 _atom_site_label
 _atom_site_symmetry_multiplicity
 _atom_site_fract_x
 _atom_site_fract_y
 _atom_site_fract_z
 _atom_site_occupancy
  H  H0  1  0.24159800  0.39297100  0.07471000  1
  Nb  Nb1  1  0.23859700  0.11220800  0.08620400  1
  Sr  Sr2  1  0.38738600  0.77041500  0.06204700  1
  H  H3  1  0.95453200  0.66751500  0.56969600  1
  H  H4  1  0.07659600  0.73909300  0.61056600  1
  H  H5  1  0.62639800  0.69766000  0.67851500  1
  H  H6  1  0.68604600  0.72911100  0.57241400  1
  H  H7  1  0.70819600  0.55757300  0.88413000  1
  Sr  Sr8  1  0.48241800  0.14162500  0.66344200  1
  H  H9  1  0.96617500  0.14452900  0.54373400  1
  H  H10  1  0.98292800  0.15000300  0.42477300  1
  H  H11  1  0.96250500  0.72553800  0.22434600  1
