# generated using pymatgen
data_H2
_symmetry_space_group_name_H-M   'P 1'
_cell_length_a   2.81066100
_cell_length_b   4.55064345
_cell_length_c   8.17466531
_cell_angle_alpha   95.31257858
_cell_angle_beta   90.48554347
_cell_angle_gamma   97.15882212
_symmetry_Int_Tables_number   1
_chemical_formula_structural   H2
_chemical_formula_sum   H17
_cell_volume   103.27465656
_cell_formula_units_Z   8
loop_
 _symmetry_equiv_pos_site_id
 _symmetry_equiv_pos_as_xyz
  1  'x, y, z'
loop_
 _atom_site_type_symbol
 _atom_site_label
 _atom_site_symmetry_multiplicity
 _atom_site_fract_x
 _atom_site_fract_y
 _atom_site_fract_z
 _atom_site_occupancy
  H  H0  1  0.40606300  0.76593800  0.09329900  1
  H  H1  1  0.45056400  0.65025000  0.15725200  1
  H  H2  1  0.14173700  0.18772100  0.12378500  1
  H  H3  1  0.37524700  0.17227600  0.17746000  1
  H  H4  1  0.51340300  0.58131600  0.84883700  1
  H  H5  1  0.76515400  0.53309900  0.80634800  1
  H  H6  1  0.89837400  0.51890400  0.33498000  1
  H  H7  1  0.01494300  0.41076700  0.38473200  1
  H  H8  1  0.88653500  0.54683300  0.56193400  1
  H  H9  1  0.55556800  0.55023200  0.56496300  1
  H  H10  1  0.22019600  0.55396800  0.56889700  1
  H  H11  1  0.00654700  0.08628300  0.84136400  1
  H  H12  1  0.24109100  0.01569800  0.79093000  1
  H  H13  1  0.56119600  0.92655800  0.37596900  1
  H  H14  1  0.77076900  0.92011900  0.44532000  1
  H  H15  1  0.59384300  0.09035800  0.58281400  1
  H  H16  1  0.83938000  0.01174300  0.55023600  1
