# generated using pymatgen
data_H2
_symmetry_space_group_name_H-M   'P 1'
_cell_length_a   3.60630200
_cell_length_b   5.32377706
_cell_length_c   6.08432609
_cell_angle_alpha   82.69304613
_cell_angle_beta   85.94838202
_cell_angle_gamma   86.58582163
_symmetry_Int_Tables_number   1
_chemical_formula_structural   H2
_chemical_formula_sum   H19
_cell_volume   115.42461487
_cell_formula_units_Z   9
loop_
 _symmetry_equiv_pos_site_id
 _symmetry_equiv_pos_as_xyz
  1  'x, y, z'
loop_
 _atom_site_type_symbol
 _atom_site_label
 _atom_site_symmetry_multiplicity
 _atom_site_fract_x
 _atom_site_fract_y
 _atom_site_fract_z
 _atom_site_occupancy
  H  H0  1  0.24504900  0.96213700  0.81965100  1
  H  H1  1  0.32362300  0.82811100  0.83970500  1
  H  H2  1  0.87651900  0.15226600  0.85026900  1
  H  H3  1  0.71218700  0.18702400  0.92090500  1
  H  H4  1  0.72418300  0.99009100  0.77402500  1
  H  H5  1  0.80981400  0.57448000  0.84528300  1
  H  H6  1  0.91298100  0.46261800  0.05931600  1
  H  H7  1  0.14091500  0.53611300  0.47147000  1
  H  H8  1  0.16968600  0.66817400  0.53487000  1
  H  H9  1  0.44776700  0.22052500  0.54392400  1
  H  H10  1  0.28999400  0.32095700  0.46701700  1
  H  H11  1  0.63031000  0.62501400  0.43594800  1
  H  H12  1  0.68487500  0.63496200  0.54139800  1
  H  H13  1  0.38426800  0.17493700  0.22476600  1
  H  H14  1  0.24006300  0.10551700  0.17072200  1
  H  H15  1  0.99071400  0.77554200  0.10695000  1
  H  H16  1  0.95369500  0.74967600  0.22333200  1
  H  H17  1  0.42813400  0.76969500  0.13150900  1
  H  H18  1  0.48539200  0.84042300  0.22505200  1
