# generated using pymatgen
data_SrNbH19
_symmetry_space_group_name_H-M   'P 1'
_cell_length_a   5.17346500
_cell_length_b   5.39565607
_cell_length_c   6.42075055
_cell_angle_alpha   107.75960560
_cell_angle_beta   105.18668180
_cell_angle_gamma   91.05234688
_symmetry_Int_Tables_number   1
_chemical_formula_structural   SrNbH19
_chemical_formula_sum   'Sr1 Nb1 H19'
_cell_volume   163.78383704
_cell_formula_units_Z   1
loop_
 _symmetry_equiv_pos_site_id
 _symmetry_equiv_pos_as_xyz
  1  'x, y, z'
loop_
 _atom_site_type_symbol
 _atom_site_label
 _atom_site_symmetry_multiplicity
 _atom_site_fract_x
 _atom_site_fract_y
 _atom_site_fract_z
 _atom_site_occupancy
  H  H0  1  0.70012300  0.34820500  0.55308500  1
  H  H1  1  0.58511900  0.41596000  0.48410400  1
  H  H2  1  0.08656600  0.32882900  0.81755000  1
  H  H3  1  0.12508700  0.24418000  0.71073600  1
  H  H4  1  0.15544000  0.54656000  0.04478600  1
  H  H5  1  0.23122500  0.48256300  0.17432700  1
  H  H6  1  0.05725200  0.75812600  0.99759700  1
  H  H7  1  0.12758900  0.13840700  0.33594500  1
  H  H8  1  0.26571700  0.08394700  0.31582800  1
  H  H9  1  0.44551600  0.81549100  0.31780800  1
  H  H10  1  0.80723600  0.18225000  0.91047300  1
  H  H11  1  0.70473700  0.11142300  0.79298600  1
  H  H12  1  0.82241000  0.22551500  0.11961900  1
  H  H13  1  0.86951600  0.49902500  0.19986900  1
  Nb  Nb14  1  0.11674900  0.76459900  0.33130100  1
  H  H15  1  0.81744800  0.92343000  0.21309600  1
  H  H16  1  0.34909400  0.91135500  0.63940200  1
  H  H17  1  0.96263600  0.79318000  0.60975600  1
  H  H18  1  0.84609600  0.84687200  0.50901500  1
  H  H19  1  0.18232300  0.51990300  0.50685000  1
  Sr  Sr20  1  0.48307700  0.61566800  0.91730900  1
