# generated using pymatgen
data_H2
_symmetry_space_group_name_H-M   'P 1'
_cell_length_a   2.84546400
_cell_length_b   5.09368932
_cell_length_c   7.55402521
_cell_angle_alpha   90.72544750
_cell_angle_beta   91.69996543
_cell_angle_gamma   92.17845967
_symmetry_Int_Tables_number   1
_chemical_formula_structural   H2
_chemical_formula_sum   H18
_cell_volume   109.34965547
_cell_formula_units_Z   9
loop_
 _symmetry_equiv_pos_site_id
 _symmetry_equiv_pos_as_xyz
  1  'x, y, z'
loop_
 _atom_site_type_symbol
 _atom_site_label
 _atom_site_symmetry_multiplicity
 _atom_site_fract_x
 _atom_site_fract_y
 _atom_site_fract_z
 _atom_site_occupancy
  H  H0  1  0.00692700  0.41076700  0.86070500  1
  H  H1  1  0.88019500  0.42355100  0.86650200  1
  H  H2  1  0.21652300  0.41675200  0.86406800  1
  H  H3  1  0.54846700  0.41671000  0.86334500  1
  H  H4  1  0.33336100  0.44886000  0.56907000  1
  H  H5  1  0.45765400  0.31325300  0.55140300  1
  H  H6  1  0.77047000  0.76677100  0.51998500  1
  H  H7  1  0.83666800  0.64013700  0.46288100  1
  H  H8  1  0.14363000  0.98190500  0.60948400  1
  H  H9  1  0.06907200  0.89764700  0.91486600  1
  H  H10  1  0.20141500  0.93459100  0.99294900  1
  H  H11  1  0.98653800  0.17315400  0.32614700  1
  H  H12  1  0.84182700  0.27252600  0.27857800  1
  H  H13  1  0.58285200  0.94637100  0.23157900  1
  H  H14  1  0.53354700  0.81579900  0.23052100  1
  H  H15  1  0.01974400  0.64543700  0.15018200  1
  H  H16  1  0.19935300  0.59079300  0.16943800  1
  H  H17  1  0.27817900  0.44972100  0.15661100  1
