# generated using pymatgen
data_H2
_symmetry_space_group_name_H-M   'P 1'
_cell_length_a   2.65719300
_cell_length_b   4.94088944
_cell_length_c   6.67542258
_cell_angle_alpha   80.89876337
_cell_angle_beta   86.20453575
_cell_angle_gamma   79.59159528
_symmetry_Int_Tables_number   1
_chemical_formula_structural   H2
_chemical_formula_sum   H14
_cell_volume   85.04971674
_cell_formula_units_Z   7
loop_
 _symmetry_equiv_pos_site_id
 _symmetry_equiv_pos_as_xyz
  1  'x, y, z'
loop_
 _atom_site_type_symbol
 _atom_site_label
 _atom_site_symmetry_multiplicity
 _atom_site_fract_x
 _atom_site_fract_y
 _atom_site_fract_z
 _atom_site_occupancy
  H  H0  1  0.36266600  0.82695900  0.41306800  1
  H  H1  1  0.71971400  0.94539700  0.28689400  1
  H  H2  1  0.83648400  0.17077100  0.50349700  1
  H  H3  1  0.70751400  0.28676600  0.51559000  1
  H  H4  1  0.36204700  0.36915100  0.39712800  1
  H  H5  1  0.02961400  0.36333200  0.39702100  1
  H  H6  1  0.99411400  0.51906200  0.22261800  1
  H  H7  1  0.78438400  0.56164900  0.82103900  1
  H  H8  1  0.62995800  0.50915800  0.92614100  1
  H  H9  1  0.18176200  0.22620300  0.94248900  1
  H  H10  1  0.29039900  0.34539800  0.90849100  1
  H  H11  1  0.48346900  0.12809000  0.90243500  1
  H  H12  1  0.29684500  0.13289500  0.67906900  1
  H  H13  1  0.12567500  0.81914200  0.84232100  1
