# generated using pymatgen
data_SrNbH7
_symmetry_space_group_name_H-M   'P 1'
_cell_length_a   3.53093100
_cell_length_b   5.81998563
_cell_length_c   9.05188708
_cell_angle_alpha   100.74268679
_cell_angle_beta   98.86243253
_cell_angle_gamma   106.99083689
_symmetry_Int_Tables_number   1
_chemical_formula_structural   SrNbH7
_chemical_formula_sum   'Sr1 Nb1 H7'
_cell_volume   170.42000044
_cell_formula_units_Z   1
loop_
 _symmetry_equiv_pos_site_id
 _symmetry_equiv_pos_as_xyz
  1  'x, y, z'
loop_
 _atom_site_type_symbol
 _atom_site_label
 _atom_site_symmetry_multiplicity
 _atom_site_fract_x
 _atom_site_fract_y
 _atom_site_fract_z
 _atom_site_occupancy
  H  H0  1  0.52692000  0.88523300  0.81721600  1
  H  H1  1  0.64830900  0.65354900  0.86750400  1
  H  H2  1  0.62889400  0.91101900  0.26338500  1
  Sr  Sr3  1  0.30646000  0.02761600  0.32518200  1
  H  H4  1  0.79407000  0.71110400  0.12440600  1
  Nb  Nb5  1  0.78186200  0.00044200  0.07356200  1
  H  H6  1  0.96110200  0.29303700  0.82527400  1
  H  H7  1  0.98857300  0.24869400  0.49336700  1
  H  H8  1  0.72645400  0.52183400  0.36672600  1
