# generated using pymatgen
data_Sr5NbH15
_symmetry_space_group_name_H-M   'P 1'
_cell_length_a   6.55164700
_cell_length_b   6.65743222
_cell_length_c   6.98732881
_cell_angle_alpha   69.50587661
_cell_angle_beta   77.80001542
_cell_angle_gamma   61.08951727
_symmetry_Int_Tables_number   1
_chemical_formula_structural   Sr5NbH15
_chemical_formula_sum   'Sr5 Nb1 H15'
_cell_volume   249.57158105
_cell_formula_units_Z   1
loop_
 _symmetry_equiv_pos_site_id
 _symmetry_equiv_pos_as_xyz
  1  'x, y, z'
loop_
 _atom_site_type_symbol
 _atom_site_label
 _atom_site_symmetry_multiplicity
 _atom_site_fract_x
 _atom_site_fract_y
 _atom_site_fract_z
 _atom_site_occupancy
  Sr  Sr0  1  0.57961700  0.97117800  0.65657200  1
  H  H1  1  0.87281000  0.67359100  0.87786100  1
  H  H2  1  0.27577600  0.12201900  0.21640100  1
  H  H3  1  0.09118100  0.03704600  0.43209500  1
  H  H4  1  0.55728600  0.11346600  0.23675800  1
  H  H5  1  0.46780500  0.84449600  0.40160900  1
  H  H6  1  0.27145300  0.25762400  0.41136900  1
  H  H7  1  0.24169300  0.85372900  0.22927300  1
  H  H8  1  0.50296800  0.94610100  0.04465100  1
  H  H9  1  0.97841500  0.38152200  0.23848600  1
  Nb  Nb10  1  0.10528300  0.20919500  0.98764500  1
  H  H11  1  0.28306200  0.41815500  0.04731800  1
  Sr  Sr12  1  0.92100100  0.31994100  0.62708600  1
  H  H13  1  0.71733400  0.13331300  0.84188000  1
  H  H14  1  0.59333600  0.58678100  0.76267300  1
  Sr  Sr15  1  0.93103900  0.82210000  0.11524200  1
  Sr  Sr16  1  0.59447700  0.50501200  0.11626900  1
  Sr  Sr17  1  0.25675500  0.62113500  0.66155800  1
  H  H18  1  0.20878300  0.89843200  0.82140400  1
  H  H19  1  0.92516500  0.70350900  0.48783500  1
  H  H20  1  0.58311300  0.36401900  0.48535100  1
