# generated using pymatgen
data_H2
_symmetry_space_group_name_H-M   'P 1'
_cell_length_a   2.75442900
_cell_length_b   5.21403164
_cell_length_c   6.99114785
_cell_angle_alpha   95.38164951
_cell_angle_beta   95.45410210
_cell_angle_gamma   101.73483087
_symmetry_Int_Tables_number   1
_chemical_formula_structural   H2
_chemical_formula_sum   H16
_cell_volume   97.19970636
_cell_formula_units_Z   8
loop_
 _symmetry_equiv_pos_site_id
 _symmetry_equiv_pos_as_xyz
  1  'x, y, z'
loop_
 _atom_site_type_symbol
 _atom_site_label
 _atom_site_symmetry_multiplicity
 _atom_site_fract_x
 _atom_site_fract_y
 _atom_site_fract_z
 _atom_site_occupancy
  H  H0  1  0.54924900  0.58324800  0.13593200  1
  H  H1  1  0.21292100  0.57644900  0.13349800  1
  H  H2  1  0.31926400  0.82684600  0.67385300  1
  H  H3  1  0.17455300  0.72747400  0.72142200  1
  H  H4  1  0.61090500  0.55027900  0.84338900  1
  H  H5  1  0.53207900  0.40920700  0.83056200  1
  H  H6  1  0.91557800  0.05362900  0.76842100  1
  H  H7  1  0.86627300  0.18420100  0.76947900  1
  H  H8  1  0.40179800  0.10235300  0.08513400  1
  H  H9  1  0.53414100  0.06540900  0.00705100  1
  H  H10  1  0.66608700  0.55114000  0.43093000  1
  H  H11  1  0.79038000  0.68674700  0.44859700  1
  H  H12  1  0.10319600  0.23322900  0.48001500  1
  H  H13  1  0.16939400  0.35986300  0.53711900  1
  H  H14  1  0.47635600  0.01809500  0.39051600  1
  H  H15  1  0.35614800  0.91200700  0.31750900  1
