# generated using pymatgen
data_Sr(NbH3)5
_symmetry_space_group_name_H-M   'P 1'
_cell_length_a   4.95063200
_cell_length_b   5.77222224
_cell_length_c   6.29318941
_cell_angle_alpha   90.79638121
_cell_angle_beta   90.27055677
_cell_angle_gamma   90.59212354
_symmetry_Int_Tables_number   1
_chemical_formula_structural   Sr(NbH3)5
_chemical_formula_sum   'Sr1 Nb5 H15'
_cell_volume   179.80600990
_cell_formula_units_Z   1
loop_
 _symmetry_equiv_pos_site_id
 _symmetry_equiv_pos_as_xyz
  1  'x, y, z'
loop_
 _atom_site_type_symbol
 _atom_site_label
 _atom_site_symmetry_multiplicity
 _atom_site_fract_x
 _atom_site_fract_y
 _atom_site_fract_z
 _atom_site_occupancy
  Sr  Sr0  1  0.58104600  0.79690700  0.88278600  1
  H  H1  1  0.61157300  0.72265600  0.08570800  1
  H  H2  1  0.88090600  0.59317900  0.16777800  1
  H  H3  1  0.30737700  0.58562200  0.16033400  1
  H  H4  1  0.74854400  0.82773400  0.53433400  1
  H  H5  1  0.90387500  0.57681500  0.58574300  1
  Nb  Nb6  1  0.58202000  0.05603000  0.37150300  1
  Nb  Nb7  1  0.08578600  0.29208600  0.63490400  1
  H  H8  1  0.00974100  0.49306100  0.87763000  1
  H  H9  1  0.30860300  0.29634800  0.37518900  1
  H  H10  1  0.69461700  0.27323600  0.60054900  1
  H  H11  1  0.92202200  0.12466200  0.86922600  1
  Nb  Nb12  1  0.07437800  0.28907400  0.11855100  1
  Nb  Nb13  1  0.58927400  0.53869500  0.38123900  1
  H  H14  1  0.32976500  0.24650100  0.87879600  1
  Nb  Nb15  1  0.08892800  0.79253700  0.37483700  1
  H  H16  1  0.31189800  0.57841300  0.60449300  1
  H  H17  1  0.88007400  0.98813500  0.17021500  1
  H  H18  1  0.67355100  0.29594100  0.15520600  1
  H  H19  1  0.29250200  0.99302300  0.15621300  1
  H  H20  1  0.28543100  0.99222300  0.59207400  1
