# generated using pymatgen
data_Sr(NbH4)2
_symmetry_space_group_name_H-M   'P 1'
_cell_length_a   3.82009600
_cell_length_b   5.23743604
_cell_length_c   10.15949569
_cell_angle_alpha   91.38419254
_cell_angle_beta   92.01665116
_cell_angle_gamma   93.80912942
_symmetry_Int_Tables_number   1
_chemical_formula_structural   Sr(NbH4)2
_chemical_formula_sum   'Sr1 Nb2 H8'
_cell_volume   202.61998848
_cell_formula_units_Z   1
loop_
 _symmetry_equiv_pos_site_id
 _symmetry_equiv_pos_as_xyz
  1  'x, y, z'
loop_
 _atom_site_type_symbol
 _atom_site_label
 _atom_site_symmetry_multiplicity
 _atom_site_fract_x
 _atom_site_fract_y
 _atom_site_fract_z
 _atom_site_occupancy
  H  H0  1  0.44676600  0.25937900  0.86364900  1
  H  H1  1  0.52189200  0.97656000  0.91499600  1
  H  H2  1  0.63292900  0.10575300  0.08307300  1
  Nb  Nb3  1  0.40774300  0.68400100  0.34365300  1
  Nb  Nb4  1  0.80581700  0.78390800  0.21947900  1
  H  H5  1  0.96635600  0.26075900  0.65668200  1
  H  H6  1  0.06392300  0.25452800  0.50562200  1
  H  H7  1  0.59888600  0.24105900  0.54534600  1
  H  H8  1  0.34839400  0.61890000  0.62946200  1
  H  H9  1  0.25107100  0.73138800  0.62260300  1
  Sr  Sr10  1  0.72416000  0.79136600  0.56568600  1
