# generated using pymatgen
data_H2
_symmetry_space_group_name_H-M   'P 1'
_cell_length_a   4.39802400
_cell_length_b   5.36637431
_cell_length_c   6.46523289
_cell_angle_alpha   93.39201334
_cell_angle_beta   94.14406461
_cell_angle_gamma   91.20019368
_symmetry_Int_Tables_number   1
_chemical_formula_structural   H2
_chemical_formula_sum   H25
_cell_volume   151.87450562
_cell_formula_units_Z   12
loop_
 _symmetry_equiv_pos_site_id
 _symmetry_equiv_pos_as_xyz
  1  'x, y, z'
loop_
 _atom_site_type_symbol
 _atom_site_label
 _atom_site_symmetry_multiplicity
 _atom_site_fract_x
 _atom_site_fract_y
 _atom_site_fract_z
 _atom_site_occupancy
  H  H0  1  0.23846400  0.63225400  0.22168000  1
  H  H1  1  0.29833700  0.74267800  0.18068600  1
  H  H2  1  0.76908500  0.91168500  0.02891900  1
  H  H3  1  0.81832000  0.86174000  0.12123000  1
  H  H4  1  0.19639200  0.16767400  0.34747300  1
  H  H5  1  0.13852200  0.16765700  0.23567000  1
  H  H6  1  0.39426000  0.31489400  0.54334300  1
  H  H7  1  0.02864200  0.81614300  0.72491400  1
  H  H8  1  0.13945900  0.73490400  0.77720900  1
  H  H9  1  0.15446200  0.15967000  0.82285400  1
  H  H10  1  0.16352300  0.28129900  0.89728400  1
  H  H11  1  0.14422300  0.04084700  0.74326400  1
  H  H12  1  0.84139300  0.37010100  0.08370500  1
  H  H13  1  0.68962900  0.43089700  0.11079200  1
  H  H14  1  0.58075000  0.51226400  0.82234600  1
  H  H15  1  0.58859300  0.52007800  0.71522400  1
  H  H16  1  0.50170500  0.97233900  0.75811900  1
  H  H17  1  0.64422300  0.04084700  0.74326400  1
  H  H18  1  0.65446200  0.15967000  0.82285400  1
  H  H19  1  0.66352300  0.28129900  0.89728400  1
  H  H20  1  0.69639200  0.16767400  0.34747300  1
  H  H21  1  0.63852200  0.16765700  0.23567000  1
  H  H22  1  0.74585200  0.53518500  0.44067900  1
  H  H23  1  0.61077200  0.62943000  0.44932900  1
  H  H24  1  0.89426000  0.31489400  0.54334300  1
