# generated using pymatgen
data_H2
_symmetry_space_group_name_H-M   'P 1'
_cell_length_a   4.75936600
_cell_length_b   5.06268619
_cell_length_c   5.83140554
_cell_angle_alpha   94.66639831
_cell_angle_beta   93.62911173
_cell_angle_gamma   91.02694999
_symmetry_Int_Tables_number   1
_chemical_formula_structural   H2
_chemical_formula_sum   H23
_cell_volume   139.72456527
_cell_formula_units_Z   11
loop_
 _symmetry_equiv_pos_site_id
 _symmetry_equiv_pos_as_xyz
  1  'x, y, z'
loop_
 _atom_site_type_symbol
 _atom_site_label
 _atom_site_symmetry_multiplicity
 _atom_site_fract_x
 _atom_site_fract_y
 _atom_site_fract_z
 _atom_site_occupancy
  H  H0  1  0.72149000  0.06450600  0.16024400  1
  H  H1  1  0.63311900  0.90692000  0.26582600  1
  H  H2  1  0.99146000  0.77147200  0.88046800  1
  H  H3  1  0.95512700  0.81830000  0.77469600  1
  H  H4  1  0.25235800  0.61071600  0.18360700  1
  H  H5  1  0.35565100  0.71651500  0.15146200  1
  H  H6  1  0.22540300  0.12964200  0.19713600  1
  H  H7  1  0.29973500  0.18618500  0.11583800  1
  H  H8  1  0.29858400  0.99958400  0.86052800  1
  H  H9  1  0.27776000  0.92114900  0.97814000  1
  H  H10  1  0.46176200  0.08932000  0.83091500  1
  H  H11  1  0.45051600  0.48641800  0.82406800  1
  H  H12  1  0.44960600  0.28785800  0.82839600  1
  H  H13  1  0.45919500  0.68547800  0.81624100  1
  H  H14  1  0.16806600  0.03924600  0.51222600  1
  H  H15  1  0.79574400  0.48676400  0.10895700  1
  H  H16  1  0.75348500  0.53226700  0.21718100  1
  H  H17  1  0.54467400  0.48652700  0.47808600  1
  H  H18  1  0.58364300  0.34603400  0.49159300  1
  H  H19  1  0.96852100  0.24544600  0.87563300  1
  H  H20  1  0.93712300  0.34840900  0.80424800  1
  H  H21  1  0.10313000  0.49975100  0.54301300  1
  H  H22  1  0.02948300  0.39479100  0.44011300  1
