# generated using pymatgen
data_Sr2NbH8
_symmetry_space_group_name_H-M   'P 1'
_cell_length_a   4.00549800
_cell_length_b   7.48268787
_cell_length_c   8.29346628
_cell_angle_alpha   101.44832685
_cell_angle_beta   98.21004245
_cell_angle_gamma   95.41741989
_symmetry_Int_Tables_number   1
_chemical_formula_structural   Sr2NbH8
_chemical_formula_sum   'Sr2 Nb1 H8'
_cell_volume   239.19004056
_cell_formula_units_Z   1
loop_
 _symmetry_equiv_pos_site_id
 _symmetry_equiv_pos_as_xyz
  1  'x, y, z'
loop_
 _atom_site_type_symbol
 _atom_site_label
 _atom_site_symmetry_multiplicity
 _atom_site_fract_x
 _atom_site_fract_y
 _atom_site_fract_z
 _atom_site_occupancy
  H  H0  1  0.07827500  0.60337900  0.84615700  1
  H  H1  1  0.25101600  0.74934200  0.82110600  1
  H  H2  1  0.21224000  0.43659900  0.76103100  1
  H  H3  1  0.92769700  0.93677000  0.70057100  1
  H  H4  1  0.92518400  0.08235700  0.64283400  1
  Sr  Sr5  1  0.63037600  0.03089100  0.70193200  1
  H  H6  1  0.88523800  0.91068000  0.87906600  1
  H  H7  1  0.27098100  0.69878800  0.40136400  1
  H  H8  1  0.62875600  0.62228500  0.31744500  1
  Nb  Nb9  1  0.15687200  0.36526100  0.14995200  1
  Sr  Sr10  1  0.66781100  0.10922600  0.26465900  1
