# generated using pymatgen
data_H2
_symmetry_space_group_name_H-M   'P 1'
_cell_length_a   3.91682100
_cell_length_b   5.17043822
_cell_length_c   7.52448707
_cell_angle_alpha   96.05749508
_cell_angle_beta   98.28774664
_cell_angle_gamma   102.39864140
_symmetry_Int_Tables_number   1
_chemical_formula_structural   H2
_chemical_formula_sum   H24
_cell_volume   145.79950639
_cell_formula_units_Z   12
loop_
 _symmetry_equiv_pos_site_id
 _symmetry_equiv_pos_as_xyz
  1  'x, y, z'
loop_
 _atom_site_type_symbol
 _atom_site_label
 _atom_site_symmetry_multiplicity
 _atom_site_fract_x
 _atom_site_fract_y
 _atom_site_fract_z
 _atom_site_occupancy
  H  H0  1  0.26872600  0.02167800  0.22169200  1
  H  H1  1  0.30667900  0.04835900  0.11471200  1
  H  H2  1  0.45128500  0.05573600  0.81772300  1
  H  H3  1  0.41781100  0.19645200  0.85553100  1
  H  H4  1  0.37186000  0.14494700  0.95749900  1
  H  H5  1  0.80408300  0.39793400  0.12021500  1
  H  H6  1  0.72418300  0.43599100  0.20911300  1
  H  H7  1  0.73432000  0.97116800  0.15361200  1
  H  H8  1  0.80981400  0.85160300  0.13785500  1
  H  H9  1  0.24504900  0.46394600  0.16348700  1
  H  H10  1  0.32362300  0.59797200  0.14343300  1
  H  H11  1  0.42813400  0.65638800  0.85162900  1
  H  H12  1  0.48539200  0.58565900  0.75808600  1
  H  H13  1  0.45581200  0.68265700  0.99186100  1
  H  H14  1  0.95369500  0.67640600  0.75980600  1
  H  H15  1  0.92646500  0.20971800  0.79493800  1
  H  H16  1  0.14091500  0.88997000  0.51166800  1
  H  H17  1  0.16968600  0.75790800  0.44826800  1
  H  H18  1  0.63031000  0.80106800  0.54719000  1
  H  H19  1  0.68487500  0.79112100  0.44174000  1
  H  H20  1  0.55585500  0.23099500  0.54947000  1
  H  H21  1  0.61664800  0.34197800  0.49367300  1
  H  H22  1  0.13822500  0.35553400  0.52194900  1
  H  H23  1  0.01176900  0.26061300  0.44017400  1
