# generated using pymatgen
data_SrNb4H19
_symmetry_space_group_name_H-M   'P 1'
_cell_length_a   5.14606000
_cell_length_b   5.60203542
_cell_length_c   6.52787519
_cell_angle_alpha   95.43588448
_cell_angle_beta   95.50890496
_cell_angle_gamma   95.18640353
_symmetry_Int_Tables_number   1
_chemical_formula_structural   SrNb4H19
_chemical_formula_sum   'Sr1 Nb4 H19'
_cell_volume   185.53436383
_cell_formula_units_Z   1
loop_
 _symmetry_equiv_pos_site_id
 _symmetry_equiv_pos_as_xyz
  1  'x, y, z'
loop_
 _atom_site_type_symbol
 _atom_site_label
 _atom_site_symmetry_multiplicity
 _atom_site_fract_x
 _atom_site_fract_y
 _atom_site_fract_z
 _atom_site_occupancy
  H  H0  1  0.99071400  0.14001900  0.00684100  1
  H  H1  1  0.92202200  0.12466200  0.96230700  1
  H  H2  1  0.32976500  0.24650100  0.97187700  1
  H  H3  1  0.74854400  0.82773400  0.62741500  1
  H  H4  1  0.90387500  0.57681500  0.67882400  1
  H  H5  1  0.80408300  0.88741200  0.25086800  1
  H  H6  1  0.72418300  0.92546900  0.33976600  1
  Nb  Nb7  1  0.58202000  0.05603000  0.46458500  1
  H  H8  1  0.73432000  0.46064600  0.28426500  1
  H  H9  1  0.80981400  0.34108100  0.26850800  1
  Nb  Nb10  1  0.58927400  0.53869500  0.47432000  1
  H  H11  1  0.24504900  0.95342400  0.29414000  1
  H  H12  1  0.32362300  0.08745000  0.27408600  1
  H  H13  1  0.26872600  0.51115600  0.35234500  1
  H  H14  1  0.30667900  0.53783700  0.24536500  1
  H  H15  1  0.30860300  0.29634800  0.46827000  1
  Nb  Nb16  1  0.08892800  0.79253700  0.46791800  1
  H  H17  1  0.69461700  0.27323600  0.69363100  1
  H  H18  1  0.28543100  0.99222300  0.68515500  1
  H  H19  1  0.95584900  0.60106400  0.00234100  1
  H  H20  1  0.00974100  0.49306100  0.97071100  1
  Nb  Nb21  1  0.08578600  0.29208600  0.72798500  1
  H  H22  1  0.31189800  0.57841300  0.69757400  1
  Sr  Sr23  1  0.58104600  0.79690700  0.97586700  1
