# generated using pymatgen
data_SrNbH21
_symmetry_space_group_name_H-M   'P 1'
_cell_length_a   4.58814800
_cell_length_b   5.75986967
_cell_length_c   6.78329794
_cell_angle_alpha   84.47450975
_cell_angle_beta   88.21068628
_cell_angle_gamma   80.44545907
_symmetry_Int_Tables_number   1
_chemical_formula_structural   SrNbH21
_chemical_formula_sum   'Sr1 Nb1 H21'
_cell_volume   175.93378267
_cell_formula_units_Z   1
loop_
 _symmetry_equiv_pos_site_id
 _symmetry_equiv_pos_as_xyz
  1  'x, y, z'
loop_
 _atom_site_type_symbol
 _atom_site_label
 _atom_site_symmetry_multiplicity
 _atom_site_fract_x
 _atom_site_fract_y
 _atom_site_fract_z
 _atom_site_occupancy
  H  H0  1  0.14912100  0.35336800  0.93721600  1
  H  H1  1  0.09851500  0.46933800  0.98869600  1
  H  H2  1  0.92060000  0.53951200  0.03275300  1
  H  H3  1  0.82283900  0.61861300  0.10950600  1
  H  H4  1  0.64200400  0.95953400  0.85675500  1
  H  H5  1  0.57803300  0.86895700  0.91745600  1
  H  H6  1  0.59189100  0.86340800  0.11644500  1
  H  H7  1  0.79840300  0.31169000  0.89259400  1
  H  H8  1  0.64790600  0.39030900  0.94465600  1
  H  H9  1  0.14998200  0.78642000  0.81436900  1
  H  H10  1  0.13771800  0.88818000  0.86633600  1
  H  H11  1  0.99119700  0.07222500  0.00396700  1
  H  H12  1  0.78519000  0.15166900  0.27006000  1
  H  H13  1  0.00180600  0.02530700  0.36863700  1
  H  H14  1  0.13128600  0.74747600  0.41958200  1
  H  H15  1  0.93739100  0.30839000  0.50432000  1
  H  H16  1  0.61082500  0.24238100  0.47180300  1
  H  H17  1  0.30863800  0.41117600  0.27075600  1
  Nb  Nb18  1  0.22806000  0.44445100  0.43682000  1
  H  H19  1  0.38214200  0.52342200  0.63210100  1
  H  H20  1  0.25673600  0.23298600  0.67518400  1
  H  H21  1  0.94843200  0.57075600  0.64776000  1
  Sr  Sr22  1  0.53362200  0.85900600  0.48375900  1
