# generated using pymatgen
data_SrNb2H9
_symmetry_space_group_name_H-M   'P 1'
_cell_length_a   3.23810900
_cell_length_b   6.00169130
_cell_length_c   11.61656121
_cell_angle_alpha   76.85746463
_cell_angle_beta   83.89765916
_cell_angle_gamma   80.92588008
_symmetry_Int_Tables_number   1
_chemical_formula_structural   SrNb2H9
_chemical_formula_sum   'Sr1 Nb2 H9'
_cell_volume   216.50996785
_cell_formula_units_Z   1
loop_
 _symmetry_equiv_pos_site_id
 _symmetry_equiv_pos_as_xyz
  1  'x, y, z'
loop_
 _atom_site_type_symbol
 _atom_site_label
 _atom_site_symmetry_multiplicity
 _atom_site_fract_x
 _atom_site_fract_y
 _atom_site_fract_z
 _atom_site_occupancy
  H  H0  1  0.20534900  0.47234700  0.49949300  1
  Nb  Nb1  1  0.50769900  0.46157900  0.40586900  1
  H  H2  1  0.64641900  0.02524300  0.22221700  1
  H  H3  1  0.68987700  0.13277200  0.23336500  1
  Nb  Nb4  1  0.04619700  0.07144700  0.22189700  1
  H  H5  1  0.31286200  0.85768400  0.21025800  1
  H  H6  1  0.08728500  0.25238600  0.33442400  1
  H  H7  1  0.72260200  0.41566200  0.24278300  1
  H  H8  1  0.71538000  0.18413800  0.55253700  1
  H  H9  1  0.41650800  0.77143000  0.71808900  1
  H  H10  1  0.93647700  0.06665300  0.77500500  1
  Sr  Sr11  1  0.48730000  0.38119000  0.91929500  1
