# generated using pymatgen
data_Sr4NbH15
_symmetry_space_group_name_H-M   'P 1'
_cell_length_a   5.36876400
_cell_length_b   6.63525792
_cell_length_c   7.19351934
_cell_angle_alpha   89.79606332
_cell_angle_beta   75.25255358
_cell_angle_gamma   66.88583279
_symmetry_Int_Tables_number   1
_chemical_formula_structural   Sr4NbH15
_chemical_formula_sum   'Sr4 Nb1 H15'
_cell_volume   226.57867548
_cell_formula_units_Z   1
loop_
 _symmetry_equiv_pos_site_id
 _symmetry_equiv_pos_as_xyz
  1  'x, y, z'
loop_
 _atom_site_type_symbol
 _atom_site_label
 _atom_site_symmetry_multiplicity
 _atom_site_fract_x
 _atom_site_fract_y
 _atom_site_fract_z
 _atom_site_occupancy
  Sr  Sr0  1  0.65215500  0.47597700  0.30438800  1
  H  H1  1  0.01133000  0.51551200  0.35047000  1
  H  H2  1  0.91970200  0.77252800  0.60426000  1
  H  H3  1  0.90624600  0.79458300  0.70868200  1
  H  H4  1  0.59084000  0.57585300  0.63028400  1
  H  H5  1  0.68299900  0.26647000  0.62482600  1
  H  H6  1  0.60991200  0.30735900  0.00775800  1
  Nb  Nb7  1  0.54282600  0.43033300  0.91830200  1
  H  H8  1  0.80253500  0.11380200  0.87747000  1
  H  H9  1  0.56728600  0.69711500  0.00476200  1
  H  H10  1  0.44189300  0.74685400  0.89041900  1
  Sr  Sr11  1  0.14109200  0.74467900  0.05102700  1
  H  H12  1  0.24663600  0.25616200  0.89112200  1
  H  H13  1  0.05137300  0.56038300  0.87933600  1
  H  H14  1  0.21440100  0.45755600  0.59731500  1
  H  H15  1  0.99057900  0.08860400  0.35175600  1
  H  H16  1  0.63344600  0.12293500  0.35985900  1
  H  H17  1  0.64708700  0.84224900  0.36302600  1
  Sr  Sr18  1  0.38796500  0.10735000  0.17155800  1
  Sr  Sr19  1  0.29343000  0.01925600  0.64173300  1
