# generated using pymatgen
data_H2
_symmetry_space_group_name_H-M   'P 1'
_cell_length_a   4.73069100
_cell_length_b   4.91425207
_cell_length_c   6.38754981
_cell_angle_alpha   80.77160537
_cell_angle_beta   79.14994043
_cell_angle_gamma   74.72488287
_symmetry_Int_Tables_number   1
_chemical_formula_structural   H2
_chemical_formula_sum   H23
_cell_volume   139.72454380
_cell_formula_units_Z   11
loop_
 _symmetry_equiv_pos_site_id
 _symmetry_equiv_pos_as_xyz
  1  'x, y, z'
loop_
 _atom_site_type_symbol
 _atom_site_label
 _atom_site_symmetry_multiplicity
 _atom_site_fract_x
 _atom_site_fract_y
 _atom_site_fract_z
 _atom_site_occupancy
  H  H0  1  0.20263700  0.50632400  0.43062900  1
  H  H1  1  0.03609800  0.53757100  0.47410200  1
  H  H2  1  0.92897500  0.79296400  0.45502300  1
  H  H3  1  0.92897500  0.29296400  0.45502300  1
  H  H4  1  0.48375400  0.51067500  0.25357200  1
  H  H5  1  0.01258800  0.07464400  0.16250700  1
  H  H6  1  0.11481300  0.09612800  0.23142900  1
  H  H7  1  0.91812800  0.31338900  0.12321500  1
  H  H8  1  0.91812800  0.81338900  0.12321500  1
  H  H9  1  0.48375400  0.01067500  0.25357200  1
  H  H10  1  0.26998800  0.86381100  0.53460400  1
  H  H11  1  0.26689800  0.01802700  0.55221400  1
  H  H12  1  0.55126100  0.69610500  0.57346500  1
  H  H13  1  0.66591600  0.29932600  0.89879900  1
  H  H14  1  0.55440700  0.40398200  0.85126500  1
  H  H15  1  0.66591600  0.79932600  0.89879900  1
  H  H16  1  0.55440700  0.90398200  0.85126500  1
  H  H17  1  0.39840400  0.04219900  0.87020100  1
  H  H18  1  0.38795700  0.82892100  0.90953700  1
  H  H19  1  0.34963200  0.64817300  0.88954900  1
  H  H20  1  0.32544400  0.47768500  0.84022800  1
  H  H21  1  0.36282500  0.26179000  0.83345100  1
  H  H22  1  0.55126100  0.19610500  0.57346500  1
