# generated using pymatgen
data_H2
_symmetry_space_group_name_H-M   'P 1'
_cell_length_a   4.72381500
_cell_length_b   4.89334766
_cell_length_c   6.66613648
_cell_angle_alpha   78.78001461
_cell_angle_beta   75.43886129
_cell_angle_gamma   82.72840456
_symmetry_Int_Tables_number   1
_chemical_formula_structural   H2
_chemical_formula_sum   H24
_cell_volume   145.79952414
_cell_formula_units_Z   12
loop_
 _symmetry_equiv_pos_site_id
 _symmetry_equiv_pos_as_xyz
  1  'x, y, z'
loop_
 _atom_site_type_symbol
 _atom_site_label
 _atom_site_symmetry_multiplicity
 _atom_site_fract_x
 _atom_site_fract_y
 _atom_site_fract_z
 _atom_site_occupancy
  H  H0  1  0.82335800  0.22214500  0.54628200  1
  H  H1  1  0.66283400  0.24102900  0.54096000  1
  H  H2  1  0.31350600  0.49991300  0.33476700  1
  H  H3  1  0.47914000  0.46844200  0.30165900  1
  H  H4  1  0.28824800  0.59786600  0.86897800  1
  H  H5  1  0.22458600  0.53788200  0.79475700  1
  H  H6  1  0.31835800  0.04148100  0.80378300  1
  H  H7  1  0.17427700  0.13308200  0.82053700  1
  H  H8  1  0.74814600  0.78870700  0.92274200  1
  H  H9  1  0.71586500  0.86342800  0.81905300  1
  H  H10  1  0.73239700  0.27131400  0.90956000  1
  H  H11  1  0.74688300  0.40607800  0.83152800  1
  H  H12  1  0.39610200  0.11094200  0.16836000  1
  H  H13  1  0.50676000  0.98380200  0.16991400  1
  H  H14  1  0.61205100  0.06857900  0.02635200  1
  H  H15  1  0.37389500  0.86075600  0.51147000  1
  H  H16  1  0.17018400  0.85042800  0.51519900  1
  H  H17  1  0.57836000  0.79956200  0.50992500  1
  H  H18  1  0.98509400  0.77646400  0.51600300  1
  H  H19  1  0.78526900  0.74722200  0.51323700  1
  H  H20  1  0.92624600  0.23485300  0.21242700  1
  H  H21  1  0.96904600  0.36238500  0.13052700  1
  H  H22  1  0.96827300  0.74614200  0.19614300  1
  H  H23  1  0.04533700  0.84423400  0.10131800  1
