# generated using pymatgen
data_Sr3NbH17
_symmetry_space_group_name_H-M   'P 1'
_cell_length_a   5.15443100
_cell_length_b   5.56375394
_cell_length_c   7.59652638
_cell_angle_alpha   85.37395513
_cell_angle_beta   89.36829900
_cell_angle_gamma   83.47337066
_symmetry_Int_Tables_number   1
_chemical_formula_structural   Sr3NbH17
_chemical_formula_sum   'Sr3 Nb1 H17'
_cell_volume   215.73572319
_cell_formula_units_Z   1
loop_
 _symmetry_equiv_pos_site_id
 _symmetry_equiv_pos_as_xyz
  1  'x, y, z'
loop_
 _atom_site_type_symbol
 _atom_site_label
 _atom_site_symmetry_multiplicity
 _atom_site_fract_x
 _atom_site_fract_y
 _atom_site_fract_z
 _atom_site_occupancy
  H  H0  1  0.57118500  0.07776600  0.29420400  1
  H  H1  1  0.50763800  0.17758300  0.34638100  1
  Nb  Nb2  1  0.84942300  0.60511300  0.10156900  1
  H  H3  1  0.10910000  0.72309200  0.11543400  1
  H  H4  1  0.53748200  0.67928500  0.10876700  1
  H  H5  1  0.31455900  0.72565800  0.94906700  1
  H  H6  1  0.72437400  0.35666600  0.00625200  1
  H  H7  1  0.70577500  0.44302400  0.82238300  1
  H  H8  1  0.05108900  0.38091400  0.00114800  1
  Sr  Sr9  1  0.24657100  0.43912200  0.87073300  1
  H  H10  1  0.10779200  0.99648900  0.90647900  1
  Sr  Sr11  1  0.76390000  0.99130400  0.85332600  1
  H  H12  1  0.02269500  0.72644100  0.76102900  1
  H  H13  1  0.96408800  0.13185700  0.53508700  1
  H  H14  1  0.95910700  0.20463300  0.66458200  1
  H  H15  1  0.11049700  0.08399000  0.28500000  1
  H  H16  1  0.11276200  0.17744100  0.24864700  1
  H  H17  1  0.89537000  0.82972200  0.39701200  1
  H  H18  1  0.82715800  0.53059700  0.37814800  1
  H  H19  1  0.17054800  0.54608600  0.37657600  1
  Sr  Sr20  1  0.50387800  0.76360300  0.50921800  1
