# generated using pymatgen
data_SrNb2H13
_symmetry_space_group_name_H-M   'P 1'
_cell_length_a   3.41818300
_cell_length_b   6.08165144
_cell_length_c   6.50369847
_cell_angle_alpha   89.74018925
_cell_angle_beta   84.56746220
_cell_angle_gamma   89.37879891
_symmetry_Int_Tables_number   1
_chemical_formula_structural   SrNb2H13
_chemical_formula_sum   'Sr1 Nb2 H13'
_cell_volume   134.58415212
_cell_formula_units_Z   1
loop_
 _symmetry_equiv_pos_site_id
 _symmetry_equiv_pos_as_xyz
  1  'x, y, z'
loop_
 _atom_site_type_symbol
 _atom_site_label
 _atom_site_symmetry_multiplicity
 _atom_site_fract_x
 _atom_site_fract_y
 _atom_site_fract_z
 _atom_site_occupancy
  H  H0  1  0.39244000  0.32735600  0.50743300  1
  H  H1  1  0.24925700  0.23124100  0.53723300  1
  Nb  Nb2  1  0.79498900  0.98234600  0.53795700  1
  H  H3  1  0.87353500  0.12184100  0.79473500  1
  H  H4  1  0.76291300  0.76977400  0.30952100  1
  H  H5  1  0.77875300  0.46387000  0.29449900  1
  H  H6  1  0.88927800  0.59566200  0.54808200  1
  H  H7  1  0.87925700  0.47608300  0.78464400  1
  H  H8  1  0.81640400  0.62786500  0.04179500  1
  Nb  Nb9  1  0.88210100  0.79698700  0.77247500  1
  H  H10  1  0.38257500  0.62471300  0.78266300  1
  H  H11  1  0.28307300  0.61304500  0.26810700  1
  H  H12  1  0.82889200  0.98648000  0.08777300  1
  H  H13  1  0.37311100  0.96001900  0.81429800  1
  H  H14  1  0.28296900  0.95518600  0.29497900  1
  Sr  Sr15  1  0.33201200  0.29272500  0.02451400  1
