# generated using pymatgen
data_Sr2NbH8
_symmetry_space_group_name_H-M   'P 1'
_cell_length_a   4.03779400
_cell_length_b   4.61896510
_cell_length_c   13.60098634
_cell_angle_alpha   80.63520315
_cell_angle_beta   86.24140072
_cell_angle_gamma   72.91018761
_symmetry_Int_Tables_number   1
_chemical_formula_structural   Sr2NbH8
_chemical_formula_sum   'Sr2 Nb1 H8'
_cell_volume   239.18998673
_cell_formula_units_Z   1
loop_
 _symmetry_equiv_pos_site_id
 _symmetry_equiv_pos_as_xyz
  1  'x, y, z'
loop_
 _atom_site_type_symbol
 _atom_site_label
 _atom_site_symmetry_multiplicity
 _atom_site_fract_x
 _atom_site_fract_y
 _atom_site_fract_z
 _atom_site_occupancy
  H  H0  1  0.87749100  0.47064500  0.55829500  1
  H  H1  1  0.08735500  0.32977600  0.54882000  1
  H  H2  1  0.96675100  0.60649600  0.58878500  1
  H  H3  1  0.78818500  0.98763900  0.62015400  1
  Sr  Sr4  1  0.87799200  0.28665500  0.69013300  1
  H  H5  1  0.36898100  0.36258600  0.79171100  1
  H  H6  1  0.95677000  0.50719300  0.26727500  1
  Nb  Nb7  1  0.75759900  0.73237200  0.19704000  1
  H  H8  1  0.51739500  0.72518100  0.87460000  1
  Sr  Sr9  1  0.02541200  0.64226500  0.91274600  1
  H  H10  1  0.94604700  0.45406400  0.06176600  1
