# generated using pymatgen
data_Sr6NbH16
_symmetry_space_group_name_H-M   'P 1'
_cell_length_a   7.02317700
_cell_length_b   7.14013318
_cell_length_c   7.14035109
_cell_angle_alpha   101.08730196
_cell_angle_beta   118.13790069
_cell_angle_gamma   96.85951369
_symmetry_Int_Tables_number   1
_chemical_formula_structural   Sr6NbH16
_chemical_formula_sum   'Sr6 Nb1 H16'
_cell_volume   300.57870810
_cell_formula_units_Z   1
loop_
 _symmetry_equiv_pos_site_id
 _symmetry_equiv_pos_as_xyz
  1  'x, y, z'
loop_
 _atom_site_type_symbol
 _atom_site_label
 _atom_site_symmetry_multiplicity
 _atom_site_fract_x
 _atom_site_fract_y
 _atom_site_fract_z
 _atom_site_occupancy
  H  H0  1  0.27060300  0.06840000  0.42713600  1
  H  H1  1  0.32702600  0.88799900  0.24807200  1
  H  H2  1  0.00456800  0.91048600  0.18709800  1
  H  H3  1  0.12966800  0.87390000  0.49040400  1
  H  H4  1  0.49191700  0.93821000  0.56090600  1
  H  H5  1  0.37705700  0.11664600  0.73117300  1
  H  H6  1  0.19805200  0.18463000  0.18987300  1
  H  H7  1  0.05118700  0.19926300  0.43984500  1
  H  H8  1  0.46171100  0.32981900  0.57007000  1
  Sr  Sr9  1  0.21193100  0.90264000  0.88854300  1
  Sr  Sr10  1  0.39391100  0.44087300  0.89244600  1
  H  H11  1  0.15130800  0.59471800  0.62180500  1
  Sr  Sr12  1  0.79618300  0.41714000  0.52735100  1
  Sr  Sr13  1  0.20286900  0.57014200  0.31315300  1
  H  H14  1  0.52700200  0.56529300  0.27749100  1
  Sr  Sr15  1  0.76751300  0.07734700  0.94369900  1
  H  H16  1  0.10814500  0.56814100  0.93261200  1
  H  H17  1  0.81342700  0.77283800  0.68922100  1
  Sr  Sr18  1  0.74019800  0.89781100  0.37547500  1
  H  H19  1  0.55035500  0.78970100  0.97105500  1
  Nb  Nb20  1  0.80079500  0.43548800  0.12691800  1
  H  H21  1  0.95780300  0.16197500  0.74338100  1
  H  H22  1  0.58612300  0.14055900  0.17110300  1
