# generated using pymatgen
data_SrNbH22
_symmetry_space_group_name_H-M   'P 1'
_cell_length_a   5.41165900
_cell_length_b   5.87593293
_cell_length_c   6.13719945
_cell_angle_alpha   105.03993543
_cell_angle_beta   91.75607162
_cell_angle_gamma   103.94441492
_symmetry_Int_Tables_number   1
_chemical_formula_structural   SrNbH22
_chemical_formula_sum   'Sr1 Nb1 H22'
_cell_volume   182.00877500
_cell_formula_units_Z   1
loop_
 _symmetry_equiv_pos_site_id
 _symmetry_equiv_pos_as_xyz
  1  'x, y, z'
loop_
 _atom_site_type_symbol
 _atom_site_label
 _atom_site_symmetry_multiplicity
 _atom_site_fract_x
 _atom_site_fract_y
 _atom_site_fract_z
 _atom_site_occupancy
  H  H0  1  0.89584500  0.67141200  0.72472700  1
  H  H1  1  0.73676300  0.69813800  0.64687800  1
  Nb  Nb2  1  0.01026200  0.87709500  0.47196500  1
  H  H3  1  0.93958200  0.60540900  0.28488500  1
  H  H4  1  0.01742700  0.21076100  0.42770800  1
  H  H5  1  0.16113900  0.15583500  0.37627100  1
  H  H6  1  0.16176200  0.96373800  0.19712700  1
  H  H7  1  0.91377000  0.15586600  0.62369800  1
  Sr  Sr8  1  0.48614100  0.35293300  0.31732900  1
  H  H9  1  0.39990100  0.12816300  0.13755100  1
  H  H10  1  0.58991900  0.87486600  0.42219800  1
  H  H11  1  0.66646800  0.15583400  0.37637000  1
  H  H12  1  0.05165100  0.40572400  0.96319600  1
  H  H13  1  0.05740400  0.26695300  0.98061900  1
  H  H14  1  0.12489800  0.12812500  0.86254300  1
  H  H15  1  0.19720100  0.96621800  0.75913600  1
  H  H16  1  0.91386200  0.15585200  0.12899600  1
  H  H17  1  0.46263900  0.64903100  0.98139600  1
  H  H18  1  0.35823000  0.72382400  0.05555800  1
  H  H19  1  0.45710300  0.41265800  0.74869300  1
  H  H20  1  0.58445600  0.31327700  0.75804500  1
  H  H21  1  0.40004500  0.12816900  0.58745700  1
  H  H22  1  0.67499600  0.12812300  0.86240200  1
  H  H23  1  0.27468300  0.63583800  0.58102200  1
