# generated using pymatgen
data_H2
_symmetry_space_group_name_H-M   'P 1'
_cell_length_a   3.68573400
_cell_length_b   4.71764204
_cell_length_c   7.01603244
_cell_angle_alpha   85.64594224
_cell_angle_beta   88.33296022
_cell_angle_gamma   87.65876342
_symmetry_Int_Tables_number   1
_chemical_formula_structural   H2
_chemical_formula_sum   H20
_cell_volume   121.49960098
_cell_formula_units_Z   10
loop_
 _symmetry_equiv_pos_site_id
 _symmetry_equiv_pos_as_xyz
  1  'x, y, z'
loop_
 _atom_site_type_symbol
 _atom_site_label
 _atom_site_symmetry_multiplicity
 _atom_site_fract_x
 _atom_site_fract_y
 _atom_site_fract_z
 _atom_site_occupancy
  H  H0  1  0.85792800  0.55081100  0.19200400  1
  H  H1  1  0.60750500  0.59697300  0.20172500  1
  H  H2  1  0.49399800  0.52322900  0.46613700  1
  H  H3  1  0.52670200  0.44832100  0.55436600  1
  H  H4  1  0.15719200  0.52395000  0.46509400  1
  H  H5  1  0.01040300  0.62956900  0.55734400  1
  H  H6  1  0.82569300  0.52469400  0.48112200  1
  H  H7  1  0.94453100  0.12532200  0.63887300  1
  H  H8  1  0.09806200  0.08919100  0.60523900  1
  H  H9  1  0.77354500  0.03382300  0.45080600  1
  H  H10  1  0.93632800  0.00089900  0.37701200  1
  H  H11  1  0.58303800  0.95085700  0.60144400  1
  H  H12  1  0.27853100  0.06515500  0.12128900  1
  H  H13  1  0.45239700  0.09826600  0.19471100  1
  H  H14  1  0.33977100  0.15471400  0.93520700  1
  H  H15  1  0.34226200  0.22922900  0.81696700  1
  H  H16  1  0.89134100  0.43932400  0.86759100  1
  H  H17  1  0.73345500  0.47811200  0.84792500  1
  H  H18  1  0.30596700  0.72048600  0.80819600  1
  H  H19  1  0.30268400  0.66677700  0.92901700  1
