# generated using pymatgen
data_Sr2NbH9
_symmetry_space_group_name_H-M   'P 1'
_cell_length_a   5.85553900
_cell_length_b   5.85572144
_cell_length_c   5.91434989
_cell_angle_alpha   90.00567249
_cell_angle_beta   119.66138648
_cell_angle_gamma   119.98901057
_symmetry_Int_Tables_number   1
_chemical_formula_structural   Sr2NbH9
_chemical_formula_sum   'Sr2 Nb1 H9'
_cell_volume   144.14300154
_cell_formula_units_Z   1
loop_
 _symmetry_equiv_pos_site_id
 _symmetry_equiv_pos_as_xyz
  1  'x, y, z'
loop_
 _atom_site_type_symbol
 _atom_site_label
 _atom_site_symmetry_multiplicity
 _atom_site_fract_x
 _atom_site_fract_y
 _atom_site_fract_z
 _atom_site_occupancy
  H  H0  1  0.70931400  0.99329100  0.28057800  1
  H  H1  1  0.00970700  0.97730500  0.27355900  1
  H  H2  1  0.38578400  0.68544100  0.27434200  1
  H  H3  1  0.71787400  0.31028200  0.27384700  1
  H  H4  1  0.53259800  0.68624100  0.00337900  1
  H  H5  1  0.73859900  0.12409200  0.00323000  1
  H  H6  1  0.30060800  0.89220800  0.00351100  1
  Nb  Nb7  1  0.86359300  0.84702800  0.55749100  1
  H  H8  1  0.13241600  0.29422500  0.55697600  1
  H  H9  1  0.68482500  0.11588800  0.55747400  1
  Sr  Sr10  1  0.19430300  0.23610000  0.00869600  1
  Sr  Sr11  1  0.22911500  0.75342900  0.56087800  1
