# generated using pymatgen
data_Sr(NbH9)2
_symmetry_space_group_name_H-M   'P 1'
_cell_length_a   4.33648400
_cell_length_b   5.87556007
_cell_length_c   6.68805866
_cell_angle_alpha   84.29350237
_cell_angle_beta   88.32632526
_cell_angle_gamma   76.62366385
_symmetry_Int_Tables_number   1
_chemical_formula_structural   Sr(NbH9)2
_chemical_formula_sum   'Sr1 Nb2 H18'
_cell_volume   164.95902347
_cell_formula_units_Z   1
loop_
 _symmetry_equiv_pos_site_id
 _symmetry_equiv_pos_as_xyz
  1  'x, y, z'
loop_
 _atom_site_type_symbol
 _atom_site_label
 _atom_site_symmetry_multiplicity
 _atom_site_fract_x
 _atom_site_fract_y
 _atom_site_fract_z
 _atom_site_occupancy
  H  H0  1  0.26231300  0.16299200  0.62290600  1
  H  H1  1  0.39092500  0.20898000  0.88096800  1
  H  H2  1  0.53051800  0.27656800  0.16166900  1
  H  H3  1  0.58101200  0.06501800  0.26045100  1
  H  H4  1  0.22494500  0.78015900  0.00429500  1
  H  H5  1  0.39101600  0.70874200  0.88161300  1
  H  H6  1  0.58105100  0.53830800  0.26149300  1
  H  H7  1  0.52686200  0.77489300  0.15308600  1
  H  H8  1  0.92681800  0.42337200  0.06378200  1
  H  H9  1  0.02412000  0.50741200  0.14847200  1
  H  H10  1  0.89534800  0.46084500  0.89044500  1
  Nb  Nb11  1  0.82206500  0.67266400  0.74261400  1
  H  H12  1  0.75994800  0.89500200  0.61836800  1
  H  H13  1  0.70556200  0.13110800  0.50992200  1
  H  H14  1  0.75634900  0.39339300  0.60977000  1
  H  H15  1  0.70571700  0.60497200  0.51100100  1
  Nb  Nb16  1  0.82130000  0.17791400  0.74183300  1
  H  H17  1  0.89542700  0.96118300  0.88987400  1
  H  H18  1  0.02396900  0.03962600  0.14736100  1
  Sr  Sr19  1  0.14335700  0.83495100  0.38569400  1
  H  H20  1  0.26254300  0.63034300  0.62415600  1
