# generated using pymatgen
data_Sr2NbH8
_symmetry_space_group_name_H-M   'P 1'
_cell_length_a   3.94138700
_cell_length_b   7.86663227
_cell_length_c   7.92170374
_cell_angle_alpha   91.52715891
_cell_angle_beta   102.61845370
_cell_angle_gamma   92.92935323
_symmetry_Int_Tables_number   1
_chemical_formula_structural   Sr2NbH8
_chemical_formula_sum   'Sr2 Nb1 H8'
_cell_volume   239.18997653
_cell_formula_units_Z   1
loop_
 _symmetry_equiv_pos_site_id
 _symmetry_equiv_pos_as_xyz
  1  'x, y, z'
loop_
 _atom_site_type_symbol
 _atom_site_label
 _atom_site_symmetry_multiplicity
 _atom_site_fract_x
 _atom_site_fract_y
 _atom_site_fract_z
 _atom_site_occupancy
  H  H0  1  0.40421200  0.81632500  0.17564600  1
  Sr  Sr1  1  0.48403100  0.96435600  0.27811400  1
  H  H2  1  0.28336300  0.69430000  0.48316100  1
  H  H3  1  0.15594000  0.79356200  0.53022800  1
  H  H4  1  0.02674300  0.29816500  0.39941600  1
  Sr  Sr5  1  0.89512500  0.47934900  0.44060300  1
  H  H6  1  0.28343300  0.20743500  0.58765000  1
  H  H7  1  0.95512700  0.21300400  0.97778600  1
  H  H8  1  0.97713100  0.05073300  0.01587200  1
  Nb  Nb9  1  0.53928700  0.99818200  0.83469900  1
  H  H10  1  0.51488500  0.41763200  0.95089900  1
