# generated using pymatgen
data_H2
_symmetry_space_group_name_H-M   'P 1'
_cell_length_a   4.52801200
_cell_length_b   4.95852279
_cell_length_c   6.04817954
_cell_angle_alpha   84.01804123
_cell_angle_beta   82.44753856
_cell_angle_gamma   85.86894912
_symmetry_Int_Tables_number   1
_chemical_formula_structural   H2
_chemical_formula_sum   H22
_cell_volume   133.64958552
_cell_formula_units_Z   11
loop_
 _symmetry_equiv_pos_site_id
 _symmetry_equiv_pos_as_xyz
  1  'x, y, z'
loop_
 _atom_site_type_symbol
 _atom_site_label
 _atom_site_symmetry_multiplicity
 _atom_site_fract_x
 _atom_site_fract_y
 _atom_site_fract_z
 _atom_site_occupancy
  H  H0  1  0.07217700  0.04148100  0.80378300  1
  H  H1  1  0.93910700  0.29121000  0.85730300  1
  H  H2  1  0.50196600  0.78870700  0.92274200  1
  H  H3  1  0.46968400  0.86342800  0.81905300  1
  H  H4  1  0.71546600  0.99157100  0.81542000  1
  H  H5  1  0.48621600  0.27131400  0.90956000  1
  H  H6  1  0.50070200  0.40607800  0.83152800  1
  H  H7  1  0.71047700  0.58315000  0.81961200  1
  H  H8  1  0.04206700  0.59786600  0.86897800  1
  H  H9  1  0.67109200  0.10373700  0.13233400  1
  H  H10  1  0.63804400  0.47737100  0.12325900  1
  H  H11  1  0.14992100  0.11094200  0.16836000  1
  H  H12  1  0.26058000  0.98380200  0.16991400  1
  H  H13  1  0.12771400  0.86075600  0.51147000  1
  H  H14  1  0.33217900  0.79956200  0.50992500  1
  H  H15  1  0.53908800  0.74722200  0.51323700  1
  H  H16  1  0.87170200  0.82948900  0.47382400  1
  H  H17  1  0.72689100  0.56911800  0.41833200  1
  H  H18  1  0.06732500  0.49991300  0.33476700  1
  H  H19  1  0.23295900  0.46844200  0.30165900  1
  H  H20  1  0.91861700  0.26664200  0.41457300  1
  H  H21  1  0.41665300  0.24102900  0.54096000  1
