# generated using pymatgen
data_H2
_symmetry_space_group_name_H-M   'P 1'
_cell_length_a   4.56895100
_cell_length_b   4.66801557
_cell_length_c   5.59554047
_cell_angle_alpha   74.03907430
_cell_angle_beta   76.98214190
_cell_angle_gamma   75.12744402
_symmetry_Int_Tables_number   1
_chemical_formula_structural   H2
_chemical_formula_sum   H18
_cell_volume   109.34964992
_cell_formula_units_Z   9
loop_
 _symmetry_equiv_pos_site_id
 _symmetry_equiv_pos_as_xyz
  1  'x, y, z'
loop_
 _atom_site_type_symbol
 _atom_site_label
 _atom_site_symmetry_multiplicity
 _atom_site_fract_x
 _atom_site_fract_y
 _atom_site_fract_z
 _atom_site_occupancy
  H  H0  1  0.48823200  0.77919600  0.05348800  1
  H  H1  1  0.60438900  0.82800700  0.15628900  1
  H  H2  1  0.23179700  0.87938800  0.88510700  1
  H  H3  1  0.20790700  0.00185000  0.08771600  1
  H  H4  1  0.79950800  0.37865500  0.96481700  1
  H  H5  1  0.84251300  0.44693300  0.69984400  1
  H  H6  1  0.28038700  0.33265500  0.91851500  1
  H  H7  1  0.17013900  0.33854700  0.93646900  1
  H  H8  1  0.27722300  0.39725400  0.99749800  1
  H  H9  1  0.46929300  0.41557600  0.11443500  1
  H  H10  1  0.40487300  0.32440600  0.57464000  1
  H  H11  1  0.53598500  0.16885800  0.75623900  1
  H  H12  1  0.86653500  0.80417100  0.64063200  1
  H  H13  1  0.91759600  0.81667000  0.72800000  1
  H  H14  1  0.05801300  0.76972300  0.50850100  1
  H  H15  1  0.55863000  0.87658200  0.69341600  1
  H  H16  1  0.62108400  0.13880900  0.39970100  1
  H  H17  1  0.73565000  0.69746200  0.42463300  1
