# generated using pymatgen
data_SrNbH11
_symmetry_space_group_name_H-M   'P 1'
_cell_length_a   3.86986600
_cell_length_b   4.05757246
_cell_length_c   7.77089904
_cell_angle_alpha   80.85770684
_cell_angle_beta   76.41836927
_cell_angle_gamma   77.86076678
_symmetry_Int_Tables_number   1
_chemical_formula_structural   SrNbH11
_chemical_formula_sum   'Sr1 Nb1 H11'
_cell_volume   115.18396782
_cell_formula_units_Z   1
loop_
 _symmetry_equiv_pos_site_id
 _symmetry_equiv_pos_as_xyz
  1  'x, y, z'
loop_
 _atom_site_type_symbol
 _atom_site_label
 _atom_site_symmetry_multiplicity
 _atom_site_fract_x
 _atom_site_fract_y
 _atom_site_fract_z
 _atom_site_occupancy
  H  H0  1  0.07216800  0.01111200  0.88193600  1
  H  H1  1  0.07540200  0.86013700  0.86176200  1
  H  H2  1  0.60705600  0.08447900  0.79549700  1
  H  H3  1  0.54272400  0.99602600  0.74431100  1
  H  H4  1  0.65510300  0.54942100  0.85306500  1
  H  H5  1  0.64890600  0.48384800  0.74939600  1
  H  H6  1  0.28170200  0.44482500  0.62226600  1
  Nb  Nb7  1  0.44135400  0.12347500  0.07731800  1
  H  H8  1  0.37911800  0.05512200  0.27613800  1
  H  H9  1  0.29246200  0.95186800  0.48575900  1
  H  H10  1  0.90772300  0.09150700  0.18272400  1
  H  H11  1  0.41303600  0.59495500  0.17274800  1
  Sr  Sr12  1  0.83884300  0.50523500  0.38034900  1
