# generated using pymatgen
data_H2
_symmetry_space_group_name_H-M   'P 1'
_cell_length_a   2.59186700
_cell_length_b   4.40514580
_cell_length_c   9.63021961
_cell_angle_alpha   77.65789273
_cell_angle_beta   89.13641525
_cell_angle_gamma   74.25567248
_symmetry_Int_Tables_number   1
_chemical_formula_structural   H2
_chemical_formula_sum   H17
_cell_volume   103.27467766
_cell_formula_units_Z   8
loop_
 _symmetry_equiv_pos_site_id
 _symmetry_equiv_pos_as_xyz
  1  'x, y, z'
loop_
 _atom_site_type_symbol
 _atom_site_label
 _atom_site_symmetry_multiplicity
 _atom_site_fract_x
 _atom_site_fract_y
 _atom_site_fract_z
 _atom_site_occupancy
  H  H0  1  0.78662600  0.88826700  0.79904700  1
  H  H1  1  0.66092900  0.62018000  0.71770200  1
  H  H2  1  0.17831100  0.60943800  0.54114000  1
  H  H3  1  0.86957000  0.66879300  0.47889500  1
  H  H4  1  0.59942400  0.29659900  0.55949700  1
  H  H5  1  0.75283100  0.21827400  0.54786500  1
  H  H6  1  0.29380300  0.26233700  0.62022200  1
  H  H7  1  0.40067600  0.08603100  0.43791300  1
  H  H8  1  0.50632600  0.09614200  0.42519200  1
  H  H9  1  0.82851100  0.25781100  0.34384600  1
  H  H10  1  0.47302300  0.30996300  0.33811900  1
  H  H11  1  0.49229600  0.82463500  0.01433800  1
  H  H12  1  0.14250000  0.93257500  0.95702400  1
  H  H13  1  0.30465000  0.57118700  0.05935500  1
  H  H14  1  0.27920500  0.39349600  0.17948300  1
  H  H15  1  0.10394600  0.18306000  0.06010900  1
  H  H16  1  0.17131200  0.40633300  0.88481200  1
