# generated using pymatgen
data_H2
_symmetry_space_group_name_H-M   'P 1'
_cell_length_a   3.61306200
_cell_length_b   5.38273939
_cell_length_c   6.08536359
_cell_angle_alpha   99.41131553
_cell_angle_beta   100.86099221
_cell_angle_gamma   105.11452175
_symmetry_Int_Tables_number   1
_chemical_formula_structural   H2
_chemical_formula_sum   H18
_cell_volume   109.34964965
_cell_formula_units_Z   9
loop_
 _symmetry_equiv_pos_site_id
 _symmetry_equiv_pos_as_xyz
  1  'x, y, z'
loop_
 _atom_site_type_symbol
 _atom_site_label
 _atom_site_symmetry_multiplicity
 _atom_site_fract_x
 _atom_site_fract_y
 _atom_site_fract_z
 _atom_site_occupancy
  H  H0  1  0.78216800  0.79796200  0.51678300  1
  H  H1  1  0.56414700  0.82227000  0.44911700  1
  H  H2  1  0.09693100  0.51567100  0.58684700  1
  H  H3  1  0.25196500  0.49945200  0.50293200  1
  H  H4  1  0.85596400  0.52467500  0.87181000  1
  H  H5  1  0.71310400  0.61217800  0.84427100  1
  H  H6  1  0.30156200  0.18579300  0.73033000  1
  H  H7  1  0.31965700  0.27024900  0.70950300  1
  H  H8  1  0.44022400  0.25656400  0.83587400  1
  H  H9  1  0.79038000  0.15604900  0.71511800  1
  H  H10  1  0.25287100  0.88605900  0.85736100  1
  H  H11  1  0.37992700  0.86396800  0.76401000  1
  H  H12  1  0.93888100  0.84211700  0.20134000  1
  H  H13  1  0.10343400  0.82747400  0.12122000  1
  H  H14  1  0.15126800  0.49103700  0.18159300  1
  H  H15  1  0.82200500  0.48843800  0.18934600  1
  H  H16  1  0.48640700  0.48949200  0.18150600  1
  H  H17  1  0.65285800  0.09337600  0.19805100  1
