# generated using pymatgen
data_SrNbH7
_symmetry_space_group_name_H-M   'P 1'
_cell_length_a   2.85011300
_cell_length_b   6.77271504
_cell_length_c   8.86649172
_cell_angle_alpha   90.64426565
_cell_angle_beta   94.85011052
_cell_angle_gamma   91.96139734
_symmetry_Int_Tables_number   1
_chemical_formula_structural   SrNbH7
_chemical_formula_sum   'Sr1 Nb1 H7'
_cell_volume   170.41998731
_cell_formula_units_Z   1
loop_
 _symmetry_equiv_pos_site_id
 _symmetry_equiv_pos_as_xyz
  1  'x, y, z'
loop_
 _atom_site_type_symbol
 _atom_site_label
 _atom_site_symmetry_multiplicity
 _atom_site_fract_x
 _atom_site_fract_y
 _atom_site_fract_z
 _atom_site_occupancy
  H  H0  1  0.27282600  0.13439300  0.63024900  1
  H  H1  1  0.25839800  0.32155000  0.63987200  1
  H  H2  1  0.33937900  0.12128600  0.22589500  1
  H  H3  1  0.33664000  0.02333300  0.31896700  1
  H  H4  1  0.11861900  0.05999900  0.43578500  1
  H  H5  1  0.53403100  0.51039900  0.94794800  1
  Sr  Sr6  1  0.90250300  0.64133600  0.84399100  1
  H  H7  1  0.61592500  0.16668400  0.93893000  1
  Nb  Nb8  1  0.73278200  0.61533800  0.35322300  1
