# generated using pymatgen
data_H2
_symmetry_space_group_name_H-M   'P 1'
_cell_length_a   3.90106400
_cell_length_b   5.45647982
_cell_length_c   5.99116912
_cell_angle_alpha   74.60861890
_cell_angle_beta   82.35450089
_cell_angle_gamma   83.74707297
_symmetry_Int_Tables_number   1
_chemical_formula_structural   H2
_chemical_formula_sum   H20
_cell_volume   121.49960705
_cell_formula_units_Z   10
loop_
 _symmetry_equiv_pos_site_id
 _symmetry_equiv_pos_as_xyz
  1  'x, y, z'
loop_
 _atom_site_type_symbol
 _atom_site_label
 _atom_site_symmetry_multiplicity
 _atom_site_fract_x
 _atom_site_fract_y
 _atom_site_fract_z
 _atom_site_occupancy
  H  H0  1  0.11243200  0.84426200  0.05031500  1
  H  H1  1  0.30833800  0.96536300  0.80341100  1
  H  H2  1  0.64020800  0.00483500  0.33450200  1
  H  H3  1  0.64421000  0.14364800  0.33125100  1
  H  H4  1  0.94976700  0.11364100  0.29735500  1
  H  H5  1  0.91075400  0.19958500  0.10140500  1
  H  H6  1  0.24876700  0.15792900  0.10611400  1
  H  H7  1  0.68525100  0.92469300  0.12352200  1
  H  H8  1  0.80664900  0.02929100  0.89375500  1
  H  H9  1  0.73917500  0.67843400  0.28742900  1
  H  H10  1  0.34595500  0.65900000  0.29200200  1
  H  H11  1  0.39115700  0.46526900  0.13645700  1
  H  H12  1  0.65301000  0.99864700  0.60366300  1
  H  H13  1  0.12823300  0.66637500  0.80746300  1
  H  H14  1  0.03174900  0.70092300  0.69694100  1
  H  H15  1  0.51230200  0.66634000  0.64536500  1
  H  H16  1  0.56588600  0.54268400  0.72994400  1
  H  H17  1  0.58142900  0.39655900  0.85304600  1
  H  H18  1  0.79040600  0.35306600  0.57540800  1
  H  H19  1  0.09452100  0.40118100  0.52778700  1
