# generated using pymatgen
data_H2
_symmetry_space_group_name_H-M   'P 1'
_cell_length_a   3.67014500
_cell_length_b   5.48556353
_cell_length_c   6.11121415
_cell_angle_alpha   88.76587809
_cell_angle_beta   86.38474686
_cell_angle_gamma   81.71393404
_symmetry_Int_Tables_number   1
_chemical_formula_structural   H2
_chemical_formula_sum   H20
_cell_volume   121.49960182
_cell_formula_units_Z   10
loop_
 _symmetry_equiv_pos_site_id
 _symmetry_equiv_pos_as_xyz
  1  'x, y, z'
loop_
 _atom_site_type_symbol
 _atom_site_label
 _atom_site_symmetry_multiplicity
 _atom_site_fract_x
 _atom_site_fract_y
 _atom_site_fract_z
 _atom_site_occupancy
  H  H0  1  0.73106900  0.23625000  0.34408900  1
  H  H1  1  0.90155800  0.26043800  0.39340900  1
  H  H2  1  0.55032100  0.19792400  0.32410100  1
  H  H3  1  0.11745200  0.22305700  0.40018700  1
  H  H4  1  0.33704400  0.18747800  0.36343700  1
  H  H5  1  0.78216800  0.80759100  0.16345500  1
  H  H6  1  0.56414700  0.83190000  0.09578900  1
  H  H7  1  0.15625500  0.74964400  0.40856100  1
  H  H8  1  0.01665100  0.70647900  0.40612300  1
  H  H9  1  0.44021700  0.88386800  0.68112300  1
  H  H10  1  0.36270200  0.78158000  0.65794600  1
  H  H11  1  0.08044600  0.16492000  0.02513600  1
  H  H12  1  0.11167400  0.00996100  0.99887000  1
  H  H13  1  0.40869000  0.16381400  0.01551600  1
  H  H14  1  0.74658100  0.16569800  0.02397500  1
  H  H15  1  0.51543100  0.31589400  0.69903300  1
  H  H16  1  0.36121600  0.31898400  0.68142300  1
  H  H17  1  0.87291900  0.38324400  0.80300800  1
  H  H18  1  0.84167200  0.54978400  0.75953500  1
  H  H19  1  0.25196500  0.50908100  0.14960400  1
