# generated using pymatgen
data_H2
_symmetry_space_group_name_H-M   'P 1'
_cell_length_a   2.55505300
_cell_length_b   5.68435846
_cell_length_c   7.13146381
_cell_angle_alpha   89.85501978
_cell_angle_beta   88.86561394
_cell_angle_gamma   85.77680647
_symmetry_Int_Tables_number   1
_chemical_formula_structural   H2
_chemical_formula_sum   H17
_cell_volume   103.27467911
_cell_formula_units_Z   8
loop_
 _symmetry_equiv_pos_site_id
 _symmetry_equiv_pos_as_xyz
  1  'x, y, z'
loop_
 _atom_site_type_symbol
 _atom_site_label
 _atom_site_symmetry_multiplicity
 _atom_site_fract_x
 _atom_site_fract_y
 _atom_site_fract_z
 _atom_site_occupancy
  H  H0  1  0.69498600  0.44515300  0.73603300  1
  H  H1  1  0.80485300  0.31600800  0.70851300  1
  H  H2  1  0.08966300  0.75506800  0.66137700  1
  H  H3  1  0.15671700  0.62655300  0.61709600  1
  H  H4  1  0.56523200  0.46582900  0.14344300  1
  H  H5  1  0.56434000  0.49335000  0.22810500  1
  H  H6  1  0.36919600  0.42179800  0.99510300  1
  H  H7  1  0.45336400  0.98779500  0.74285200  1
  H  H8  1  0.34736400  0.10117700  0.81387800  1
  H  H9  1  0.58276400  0.15966000  0.00025300  1
  H  H10  1  0.06760600  0.48136100  0.40035700  1
  H  H11  1  0.18556000  0.15155200  0.34516000  1
  H  H12  1  0.17122900  0.14268500  0.25573400  1
  H  H13  1  0.57813300  0.80641600  0.38428800  1
  H  H14  1  0.58191100  0.83359000  0.46908700  1
  H  H15  1  0.06669600  0.82342600  0.21906100  1
  H  H16  1  0.05259700  0.79859900  0.13338000  1
