# generated using pymatgen
data_H2
_symmetry_space_group_name_H-M   'P 1'
_cell_length_a   3.08264000
_cell_length_b   4.53398576
_cell_length_c   5.71754957
_cell_angle_alpha   87.67085047
_cell_angle_beta   82.09575087
_cell_angle_gamma   86.65041099
_symmetry_Int_Tables_number   1
_chemical_formula_structural   H2
_chemical_formula_sum   H13
_cell_volume   78.97474852
_cell_formula_units_Z   6
loop_
 _symmetry_equiv_pos_site_id
 _symmetry_equiv_pos_as_xyz
  1  'x, y, z'
loop_
 _atom_site_type_symbol
 _atom_site_label
 _atom_site_symmetry_multiplicity
 _atom_site_fract_x
 _atom_site_fract_y
 _atom_site_fract_z
 _atom_site_occupancy
  H  H0  1  0.03306500  0.51906400  0.25223700  1
  H  H1  1  0.02133500  0.40479000  0.16301400  1
  H  H2  1  0.47460100  0.66262300  0.55331900  1
  H  H3  1  0.58773700  0.53806600  0.49965200  1
  H  H4  1  0.72475200  0.82690700  0.07095500  1
  H  H5  1  0.76790600  0.69192600  0.01482400  1
  H  H6  1  0.48553400  0.08490300  0.20480600  1
  H  H7  1  0.54531400  0.13894100  0.34749800  1
  H  H8  1  0.14538900  0.44371500  0.74109400  1
  H  H9  1  0.25753900  0.44595000  0.84373500  1
  H  H10  1  0.44589300  0.11674200  0.76926200  1
  H  H11  1  0.58780800  0.17078100  0.91915000  1
  H  H12  1  0.97331700  0.97209200  0.53209800  1
