# generated using pymatgen
data_H2
_symmetry_space_group_name_H-M   'P 1'
_cell_length_a   4.57656100
_cell_length_b   5.04713479
_cell_length_c   6.12864735
_cell_angle_alpha   84.78819806
_cell_angle_beta   82.85470931
_cell_angle_gamma   86.66026216
_symmetry_Int_Tables_number   1
_chemical_formula_structural   H2
_chemical_formula_sum   H23
_cell_volume   139.72454504
_cell_formula_units_Z   11
loop_
 _symmetry_equiv_pos_site_id
 _symmetry_equiv_pos_as_xyz
  1  'x, y, z'
loop_
 _atom_site_type_symbol
 _atom_site_label
 _atom_site_symmetry_multiplicity
 _atom_site_fract_x
 _atom_site_fract_y
 _atom_site_fract_z
 _atom_site_occupancy
  H  H0  1  0.64859100  0.49991300  0.33476700  1
  H  H1  1  0.81422500  0.46844200  0.30165900  1
  H  H2  1  0.62333300  0.59786600  0.86897800  1
  H  H3  1  0.55967100  0.53788200  0.79475700  1
  H  H4  1  0.73118800  0.11094200  0.16836000  1
  H  H5  1  0.84184600  0.98380200  0.16991400  1
  H  H6  1  0.30335800  0.74614200  0.19614300  1
  H  H7  1  0.38042200  0.84423400  0.10131800  1
  H  H8  1  0.08323200  0.78870700  0.92274200  1
  H  H9  1  0.05095100  0.86342800  0.81905300  1
  H  H10  1  0.70898100  0.86075600  0.51147000  1
  H  H11  1  0.50527000  0.85042800  0.51519900  1
  H  H12  1  0.12035400  0.74722200  0.51323700  1
  H  H13  1  0.95577300  0.82773400  0.53433400  1
  H  H14  1  0.32017900  0.77646400  0.51600300  1
  H  H15  1  0.26133200  0.23485300  0.21242700  1
  H  H16  1  0.30413200  0.36238500  0.13052700  1
  H  H17  1  0.65344300  0.04148100  0.80378300  1
  H  H18  1  0.50936200  0.13308200  0.82053700  1
  H  H19  1  0.06748200  0.27131400  0.90956000  1
  H  H20  1  0.08196800  0.40607800  0.83152800  1
  H  H21  1  0.15844400  0.22214500  0.54628200  1
  H  H22  1  0.90184600  0.27323600  0.60054900  1
