# generated using pymatgen
data_SrNb2H7
_symmetry_space_group_name_H-M   'P 1'
_cell_length_a   3.88001100
_cell_length_b   5.97632262
_cell_length_c   8.39802017
_cell_angle_alpha   97.82176393
_cell_angle_beta   99.47587902
_cell_angle_gamma   95.88271551
_symmetry_Int_Tables_number   1
_chemical_formula_structural   SrNb2H7
_chemical_formula_sum   'Sr1 Nb2 H7'
_cell_volume   188.72999277
_cell_formula_units_Z   1
loop_
 _symmetry_equiv_pos_site_id
 _symmetry_equiv_pos_as_xyz
  1  'x, y, z'
loop_
 _atom_site_type_symbol
 _atom_site_label
 _atom_site_symmetry_multiplicity
 _atom_site_fract_x
 _atom_site_fract_y
 _atom_site_fract_z
 _atom_site_occupancy
  H  H0  1  0.50011000  0.56259100  0.67282700  1
  H  H1  1  0.39677900  0.48204100  0.60862500  1
  Nb  Nb2  1  0.79738000  0.67098500  0.63176400  1
  H  H3  1  0.17073900  0.95664300  0.72758400  1
  H  H4  1  0.18407100  0.95522100  0.76863800  1
  Nb  Nb5  1  0.26061600  0.85966800  0.51748200  1
  H  H6  1  0.15563200  0.66209900  0.28782400  1
  H  H7  1  0.81011900  0.51422400  0.13331200  1
  H  H8  1  0.22641200  0.18746400  0.06585400  1
  Sr  Sr9  1  0.71924000  0.21246900  0.98597300  1
