# generated using pymatgen
data_SrNb2H17
_symmetry_space_group_name_H-M   'P 1'
_cell_length_a   4.03206100
_cell_length_b   6.06382124
_cell_length_c   6.57706818
_cell_angle_alpha   88.18640165
_cell_angle_beta   85.87530538
_cell_angle_gamma   82.24322885
_symmetry_Int_Tables_number   1
_chemical_formula_structural   SrNb2H17
_chemical_formula_sum   'Sr1 Nb2 H17'
_cell_volume   158.88406332
_cell_formula_units_Z   1
loop_
 _symmetry_equiv_pos_site_id
 _symmetry_equiv_pos_as_xyz
  1  'x, y, z'
loop_
 _atom_site_type_symbol
 _atom_site_label
 _atom_site_symmetry_multiplicity
 _atom_site_fract_x
 _atom_site_fract_y
 _atom_site_fract_z
 _atom_site_occupancy
  H  H0  1  0.57963200  0.93267000  0.82747400  1
  H  H1  1  0.48361600  0.93493600  0.94174900  1
  H  H2  1  0.58969000  0.08494800  0.99362800  1
  H  H3  1  0.71620600  0.15163000  0.73601900  1
  Nb  Nb4  1  0.14989600  0.11762600  0.87104200  1
  H  H5  1  0.08503800  0.33751700  0.99383400  1
  H  H6  1  0.27142600  0.83214700  0.17118200  1
  H  H7  1  0.28362800  0.87717600  0.30497000  1
  H  H8  1  0.03060800  0.05822100  0.11658400  1
  H  H9  1  0.82538300  0.75269000  0.33354800  1
  H  H10  1  0.88735600  0.69656100  0.20989000  1
  H  H11  1  0.56618800  0.66606400  0.53457400  1
  H  H12  1  0.44340600  0.60309700  0.52396400  1
  H  H13  1  0.33325200  0.56435500  0.86479200  1
  H  H14  1  0.14450300  0.60257300  0.84761000  1
  H  H15  1  0.90232800  0.45289400  0.74980100  1
  Nb  Nb16  1  0.78371000  0.43465600  0.60096800  1
  H  H17  1  0.21759000  0.40063500  0.73597700  1
  H  H18  1  0.84816600  0.21477500  0.47817800  1
  Sr  Sr19  1  0.46657000  0.27604100  0.23613100  1
