# generated using pymatgen
data_H2
_symmetry_space_group_name_H-M   'P 1'
_cell_length_a   4.37956300
_cell_length_b   5.04045853
_cell_length_c   5.95396115
_cell_angle_alpha   80.70257606
_cell_angle_beta   80.12754808
_cell_angle_gamma   85.20163920
_symmetry_Int_Tables_number   1
_chemical_formula_structural   H2
_chemical_formula_sum   H21
_cell_volume   127.57459986
_cell_formula_units_Z   10
loop_
 _symmetry_equiv_pos_site_id
 _symmetry_equiv_pos_as_xyz
  1  'x, y, z'
loop_
 _atom_site_type_symbol
 _atom_site_label
 _atom_site_symmetry_multiplicity
 _atom_site_fract_x
 _atom_site_fract_y
 _atom_site_fract_z
 _atom_site_occupancy
  H  H0  1  0.13759600  0.21251300  0.26936800  1
  H  H1  1  0.97751700  0.23194900  0.26693600  1
  H  H2  1  0.62750800  0.07271500  0.53785800  1
  H  H3  1  0.47347900  0.12002300  0.53195000  1
  H  H4  1  0.64220500  0.59085200  0.59390500  1
  H  H5  1  0.51860000  0.55730500  0.53913200  1
  H  H6  1  0.08245200  0.81487100  0.62542200  1
  H  H7  1  0.01935900  0.90537800  0.53763200  1
  H  H8  1  0.38627000  0.78025000  0.74135300  1
  H  H9  1  0.71744800  0.84188600  0.24485400  1
  H  H10  1  0.91418000  0.77515000  0.24301100  1
  H  H11  1  0.51478700  0.83740300  0.23840100  1
  H  H12  1  0.11903500  0.73117100  0.23895900  1
  H  H13  1  0.31979100  0.77082100  0.24355200  1
  H  H14  1  0.04451200  0.30795700  0.65698700  1
  H  H15  1  0.07702200  0.42385900  0.56575200  1
  H  H16  1  0.96128300  0.40329500  0.75733300  1
  H  H17  1  0.67276900  0.52210200  0.01399800  1
  H  H18  1  0.83098200  0.48387900  0.01031300  1
  H  H19  1  0.89128600  0.71435100  0.94457600  1
  H  H20  1  0.33464700  0.45006900  0.96019300  1
