# generated using pymatgen
data_Sr(NbH4)2
_symmetry_space_group_name_H-M   'P 1'
_cell_length_a   3.43573900
_cell_length_b   3.43588049
_cell_length_c   7.84583095
_cell_angle_alpha   102.40837392
_cell_angle_beta   102.37223085
_cell_angle_gamma   90.03066665
_symmetry_Int_Tables_number   1
_chemical_formula_structural   Sr(NbH4)2
_chemical_formula_sum   'Sr1 Nb2 H8'
_cell_volume   88.24882125
_cell_formula_units_Z   1
loop_
 _symmetry_equiv_pos_site_id
 _symmetry_equiv_pos_as_xyz
  1  'x, y, z'
loop_
 _atom_site_type_symbol
 _atom_site_label
 _atom_site_symmetry_multiplicity
 _atom_site_fract_x
 _atom_site_fract_y
 _atom_site_fract_z
 _atom_site_occupancy
  H  H0  1  0.08892300  0.71620600  0.26398100  1
  H  H1  1  0.95555800  0.58969000  0.00637200  1
  Nb  Nb2  1  0.21521200  0.84816600  0.52182200  1
  H  H3  1  0.77406700  0.90291500  0.64463100  1
  H  H4  1  0.90210500  0.03060800  0.88341600  1
  H  H5  1  0.02091400  0.14989600  0.12895800  1
  H  H6  1  0.65497500  0.78371000  0.39903200  1
  H  H7  1  0.58693300  0.21759000  0.26402300  1
  H  H8  1  0.72061500  0.34396600  0.52165200  1
  Nb  Nb9  1  0.46069700  0.08503800  0.00616600  1
  Sr  Sr10  1  0.33774400  0.46657000  0.76386900  1
