# generated using pymatgen
data_H2
_symmetry_space_group_name_H-M   'P 1'
_cell_length_a   3.40339100
_cell_length_b   4.52999864
_cell_length_c   6.73483514
_cell_angle_alpha   84.35660589
_cell_angle_beta   88.88639935
_cell_angle_gamma   88.38715697
_symmetry_Int_Tables_number   1
_chemical_formula_structural   H2
_chemical_formula_sum   H17
_cell_volume   103.27466144
_cell_formula_units_Z   8
loop_
 _symmetry_equiv_pos_site_id
 _symmetry_equiv_pos_as_xyz
  1  'x, y, z'
loop_
 _atom_site_type_symbol
 _atom_site_label
 _atom_site_symmetry_multiplicity
 _atom_site_fract_x
 _atom_site_fract_y
 _atom_site_fract_z
 _atom_site_occupancy
  H  H0  1  0.55616900  0.52263100  0.19513800  1
  H  H1  1  0.30781300  0.64513000  0.22080300  1
  H  H2  1  0.93683400  0.01082400  0.74533000  1
  H  H3  1  0.78371700  0.08926000  0.67855600  1
  H  H4  1  0.99898400  0.87483200  0.97215500  1
  H  H5  1  0.86706900  0.76068600  0.00018200  1
  H  H6  1  0.21995900  0.76929800  0.98667300  1
  H  H7  1  0.22267700  0.35359300  0.46390200  1
  H  H8  1  0.37186000  0.39372100  0.53313300  1
  H  H9  1  0.25666800  0.25339400  0.01203800  1
  H  H10  1  0.20143400  0.30410900  0.92706600  1
  H  H11  1  0.86990700  0.14904400  0.28708700  1
  H  H12  1  0.10566900  0.07039100  0.22430200  1
  H  H13  1  0.62116800  0.53184900  0.78242200  1
  H  H14  1  0.65880300  0.62772100  0.71406600  1
  H  H15  1  0.69300400  0.80853800  0.43169500  1
  H  H16  1  0.45581200  0.85601100  0.49877200  1
