# generated using pymatgen
data_SrNb2H9
_symmetry_space_group_name_H-M   'P 1'
_cell_length_a   3.88286200
_cell_length_b   5.08943692
_cell_length_c   5.57698785
_cell_angle_alpha   88.49454771
_cell_angle_beta   82.23018568
_cell_angle_gamma   75.04650044
_symmetry_Int_Tables_number   1
_chemical_formula_structural   SrNb2H9
_chemical_formula_sum   'Sr1 Nb2 H9'
_cell_volume   105.49607325
_cell_formula_units_Z   1
loop_
 _symmetry_equiv_pos_site_id
 _symmetry_equiv_pos_as_xyz
  1  'x, y, z'
loop_
 _atom_site_type_symbol
 _atom_site_label
 _atom_site_symmetry_multiplicity
 _atom_site_fract_x
 _atom_site_fract_y
 _atom_site_fract_z
 _atom_site_occupancy
  H  H0  1  0.46009500  0.27513100  0.39677000  1
  H  H1  1  0.43912500  0.49185900  0.53887800  1
  H  H2  1  0.44302100  0.76819400  0.41351500  1
  Nb  Nb3  1  0.36590400  0.03172500  0.25238000  1
  H  H4  1  0.60202900  0.22935200  0.69891700  1
  H  H5  1  0.21655400  0.43091500  0.08161200  1
  Nb  Nb6  1  0.36225400  0.54676000  0.22398600  1
  H  H7  1  0.77851400  0.52673100  0.08348100  1
  H  H8  1  0.95494100  0.99806800  0.42583100  1
  H  H9  1  0.79128500  0.06093000  0.09563400  1
  H  H10  1  0.90684700  0.55411100  0.38785300  1
  Sr  Sr11  1  0.64485600  0.79095600  0.79430700  1
