# generated using pymatgen
data_SrNbH6
_symmetry_space_group_name_H-M   'P 1'
_cell_length_a   4.75031200
_cell_length_b   5.84722169
_cell_length_c   6.56399481
_cell_angle_alpha   65.22328769
_cell_angle_beta   71.02261327
_cell_angle_gamma   81.56094092
_symmetry_Int_Tables_number   1
_chemical_formula_structural   SrNbH6
_chemical_formula_sum   'Sr1 Nb1 H6'
_cell_volume   156.52999783
_cell_formula_units_Z   1
loop_
 _symmetry_equiv_pos_site_id
 _symmetry_equiv_pos_as_xyz
  1  'x, y, z'
loop_
 _atom_site_type_symbol
 _atom_site_label
 _atom_site_symmetry_multiplicity
 _atom_site_fract_x
 _atom_site_fract_y
 _atom_site_fract_z
 _atom_site_occupancy
  H  H0  1  0.34995300  0.41915400  0.07786100  1
  H  H1  1  0.68345800  0.34077500  0.00754100  1
  Sr  Sr2  1  0.50080000  0.55388000  0.17907200  1
  H  H3  1  0.29217400  0.93593100  0.94936000  1
  H  H4  1  0.19508400  0.00557300  0.08196900  1
  H  H5  1  0.06556500  0.88126500  0.87280100  1
  H  H6  1  0.98717300  0.18094200  0.86901000  1
  Nb  Nb7  1  0.84768700  0.87988600  0.68106300  1
