# generated using pymatgen
data_SrNb4H13
_symmetry_space_group_name_H-M   'P 1'
_cell_length_a   4.65582200
_cell_length_b   4.92483083
_cell_length_c   6.82263267
_cell_angle_alpha   97.78909533
_cell_angle_beta   99.52870256
_cell_angle_gamma   91.22078452
_symmetry_Int_Tables_number   1
_chemical_formula_structural   SrNb4H13
_chemical_formula_sum   'Sr1 Nb4 H13'
_cell_volume   152.70201450
_cell_formula_units_Z   1
loop_
 _symmetry_equiv_pos_site_id
 _symmetry_equiv_pos_as_xyz
  1  'x, y, z'
loop_
 _atom_site_type_symbol
 _atom_site_label
 _atom_site_symmetry_multiplicity
 _atom_site_fract_x
 _atom_site_fract_y
 _atom_site_fract_z
 _atom_site_occupancy
  H  H0  1  0.10474400  0.69260600  0.18694400  1
  H  H1  1  0.88273700  0.63588700  0.12793500  1
  Nb  Nb2  1  0.41851800  0.54993500  0.12521400  1
  H  H3  1  0.46844100  0.64316700  0.39123100  1
  H  H4  1  0.54930400  0.27491600  0.94872800  1
  Nb  Nb5  1  0.90650100  0.04599400  0.10722800  1
  H  H6  1  0.73381200  0.29328500  0.26188600  1
  H  H7  1  0.54618000  0.82442400  0.93971200  1
  H  H8  1  0.52281900  0.94042700  0.16336500  1
  Nb  Nb9  1  0.54197000  0.05587300  0.40696500  1
  H  H10  1  0.00814600  0.07255100  0.48679800  1
  H  H11  1  0.91019500  0.27546400  0.55102300  1
  H  H12  1  0.89939500  0.84891000  0.53870500  1
  H  H13  1  0.32803900  0.28115900  0.54451300  1
  Nb  Nb14  1  0.24153300  0.03647400  0.75194100  1
  H  H15  1  0.60619700  0.01972400  0.68562700  1
  H  H16  1  0.22830200  0.65239100  0.67509700  1
  Sr  Sr17  1  0.73774400  0.54668700  0.75051400  1
