# generated using pymatgen
data_Sr2NbH8
_symmetry_space_group_name_H-M   'P 1'
_cell_length_a   3.26723000
_cell_length_b   7.19655823
_cell_length_c   10.60295315
_cell_angle_alpha   104.48614948
_cell_angle_beta   97.38216164
_cell_angle_gamma   90.34203831
_symmetry_Int_Tables_number   1
_chemical_formula_structural   Sr2NbH8
_chemical_formula_sum   'Sr2 Nb1 H8'
_cell_volume   239.18998837
_cell_formula_units_Z   1
loop_
 _symmetry_equiv_pos_site_id
 _symmetry_equiv_pos_as_xyz
  1  'x, y, z'
loop_
 _atom_site_type_symbol
 _atom_site_label
 _atom_site_symmetry_multiplicity
 _atom_site_fract_x
 _atom_site_fract_y
 _atom_site_fract_z
 _atom_site_occupancy
  H  H0  1  0.48128100  0.91067500  0.50578100  1
  Sr  Sr1  1  0.16641800  0.77520900  0.53595500  1
  H  H2  1  0.77873500  0.88171100  0.72057400  1
  H  H3  1  0.17210800  0.02487600  0.25876400  1
  Nb  Nb4  1  0.06484400  0.13356000  0.34251500  1
  H  H5  1  0.66334300  0.80855500  0.11236600  1
  Sr  Sr6  1  0.39260800  0.96920600  0.06981300  1
  H  H7  1  0.94950400  0.16270000  0.03070900  1
  H  H8  1  0.06441400  0.55630400  0.87076700  1
  H  H9  1  0.00849500  0.56407400  0.94175100  1
  H  H10  1  0.57442400  0.28006200  0.78450100  1
