# generated using pymatgen
data_Sr2NbH7
_symmetry_space_group_name_H-M   'P 1'
_cell_length_a   3.17472100
_cell_length_b   8.51290537
_cell_length_c   8.60284196
_cell_angle_alpha   96.32959472
_cell_angle_beta   96.12881559
_cell_angle_gamma   100.49009680
_symmetry_Int_Tables_number   1
_chemical_formula_structural   Sr2NbH7
_chemical_formula_sum   'Sr2 Nb1 H7'
_cell_volume   225.29995981
_cell_formula_units_Z   1
loop_
 _symmetry_equiv_pos_site_id
 _symmetry_equiv_pos_as_xyz
  1  'x, y, z'
loop_
 _atom_site_type_symbol
 _atom_site_label
 _atom_site_symmetry_multiplicity
 _atom_site_fract_x
 _atom_site_fract_y
 _atom_site_fract_z
 _atom_site_occupancy
  H  H0  1  0.42059100  0.20142000  0.33634400  1
  H  H1  1  0.65796900  0.30915400  0.35268700  1
  Nb  Nb2  1  0.78910500  0.51134200  0.33405600  1
  H  H3  1  0.21018800  0.49470100  0.84013500  1
  Sr  Sr4  1  0.30889500  0.38990700  0.69393000  1
  H  H5  1  0.10176700  0.72997800  0.82663000  1
  H  H6  1  0.91798800  0.89915300  0.74638500  1
  H  H7  1  0.89808700  0.14185900  0.70849200  1
  Sr  Sr8  1  0.53132800  0.36814700  0.02702000  1
  H  H9  1  0.89259100  0.88937300  0.23782100  1
