# generated using pymatgen
data_SrNbH6
_symmetry_space_group_name_H-M   'P 1'
_cell_length_a   5.20115900
_cell_length_b   5.56505211
_cell_length_c   6.15441505
_cell_angle_alpha   89.17115140
_cell_angle_beta   65.63712484
_cell_angle_gamma   75.76818393
_symmetry_Int_Tables_number   1
_chemical_formula_structural   SrNbH6
_chemical_formula_sum   'Sr1 Nb1 H6'
_cell_volume   156.53001153
_cell_formula_units_Z   1
loop_
 _symmetry_equiv_pos_site_id
 _symmetry_equiv_pos_as_xyz
  1  'x, y, z'
loop_
 _atom_site_type_symbol
 _atom_site_label
 _atom_site_symmetry_multiplicity
 _atom_site_fract_x
 _atom_site_fract_y
 _atom_site_fract_z
 _atom_site_occupancy
  H  H0  1  0.66034300  0.66100200  0.80347600  1
  H  H1  1  0.54684700  0.58627200  0.87590500  1
  H  H2  1  0.78425100  0.22479500  0.88717500  1
  H  H3  1  0.74392800  0.09902800  0.85206600  1
  H  H4  1  0.61505700  0.17553600  0.70373500  1
  Nb  Nb5  1  0.01848400  0.31612100  0.05386500  1
  Sr  Sr6  1  0.83808700  0.74651100  0.07810700  1
  H  H7  1  0.32514300  0.77534700  0.43035900  1
