# generated using pymatgen
data_SrNbH6
_symmetry_space_group_name_H-M   'P 1'
_cell_length_a   4.31347900
_cell_length_b   5.78504040
_cell_length_c   7.03313782
_cell_angle_alpha   95.89145813
_cell_angle_beta   106.55697645
_cell_angle_gamma   107.92943136
_symmetry_Int_Tables_number   1
_chemical_formula_structural   SrNbH6
_chemical_formula_sum   'Sr1 Nb1 H6'
_cell_volume   156.52999824
_cell_formula_units_Z   1
loop_
 _symmetry_equiv_pos_site_id
 _symmetry_equiv_pos_as_xyz
  1  'x, y, z'
loop_
 _atom_site_type_symbol
 _atom_site_label
 _atom_site_symmetry_multiplicity
 _atom_site_fract_x
 _atom_site_fract_y
 _atom_site_fract_z
 _atom_site_occupancy
  H  H0  1  0.89461600  0.75705800  0.44899900  1
  H  H1  1  0.19594800  0.82789900  0.53211600  1
  H  H2  1  0.48007900  0.60257400  0.51777900  1
  H  H3  1  0.44380900  0.20991000  0.19641300  1
  Nb  Nb4  1  0.01464700  0.10620200  0.18065100  1
  H  H5  1  0.49552200  0.84408100  0.98234700  1
  Sr  Sr6  1  0.97374900  0.64520300  0.89506600  1
  H  H7  1  0.39452400  0.35488900  0.77644200  1
