# generated using pymatgen
data_SrNb2H7
_symmetry_space_group_name_H-M   'P 1'
_cell_length_a   3.78885500
_cell_length_b   6.19697899
_cell_length_c   8.32997860
_cell_angle_alpha   86.32113708
_cell_angle_beta   88.64325974
_cell_angle_gamma   75.23514125
_symmetry_Int_Tables_number   1
_chemical_formula_structural   SrNb2H7
_chemical_formula_sum   'Sr1 Nb2 H7'
_cell_volume   188.73001355
_cell_formula_units_Z   1
loop_
 _symmetry_equiv_pos_site_id
 _symmetry_equiv_pos_as_xyz
  1  'x, y, z'
loop_
 _atom_site_type_symbol
 _atom_site_label
 _atom_site_symmetry_multiplicity
 _atom_site_fract_x
 _atom_site_fract_y
 _atom_site_fract_z
 _atom_site_occupancy
  H  H0  1  0.73824800  0.07112400  0.65088700  1
  H  H1  1  0.65111800  0.30936600  0.69205400  1
  H  H2  1  0.45644800  0.70127000  0.62100400  1
  Nb  Nb3  1  0.25845600  0.86310300  0.52678700  1
  H  H4  1  0.55336500  0.03025800  0.40195000  1
  H  H5  1  0.91348300  0.60818700  0.16018100  1
  H  H6  1  0.66974700  0.75715100  0.14847800  1
  Nb  Nb7  1  0.81325200  0.68789500  0.28209800  1
  H  H8  1  0.04559900  0.61725200  0.45188300  1
  Sr  Sr9  1  0.22248400  0.37717000  0.02114500  1
