# generated using pymatgen
data_SrNb2H7
_symmetry_space_group_name_H-M   'P 1'
_cell_length_a   5.07130000
_cell_length_b   6.06489755
_cell_length_c   6.94551664
_cell_angle_alpha   74.22222276
_cell_angle_beta   72.53038485
_cell_angle_gamma   70.68311217
_symmetry_Int_Tables_number   1
_chemical_formula_structural   SrNb2H7
_chemical_formula_sum   'Sr1 Nb2 H7'
_cell_volume   188.72999512
_cell_formula_units_Z   1
loop_
 _symmetry_equiv_pos_site_id
 _symmetry_equiv_pos_as_xyz
  1  'x, y, z'
loop_
 _atom_site_type_symbol
 _atom_site_label
 _atom_site_symmetry_multiplicity
 _atom_site_fract_x
 _atom_site_fract_y
 _atom_site_fract_z
 _atom_site_occupancy
  H  H0  1  0.53242600  0.32410700  0.04828300  1
  Nb  Nb1  1  0.45602800  0.34309500  0.20598200  1
  H  H2  1  0.72447300  0.26683700  0.30003700  1
  H  H3  1  0.45507100  0.43150500  0.72652000  1
  H  H4  1  0.33699600  0.57223400  0.67415100  1
  H  H5  1  0.06240400  0.42274200  0.72888900  1
  Nb  Nb6  1  0.13906100  0.50353100  0.56666500  1
  H  H7  1  0.49757700  0.69881700  0.36780800  1
  Sr  Sr8  1  0.34592700  0.99502100  0.75442400  1
  H  H9  1  0.83596500  0.73664400  0.01239400  1
