# generated using pymatgen
data_Sr(NbH4)2
_symmetry_space_group_name_H-M   'P 1'
_cell_length_a   3.24509000
_cell_length_b   6.49258668
_cell_length_c   9.73512384
_cell_angle_alpha   98.67830280
_cell_angle_beta   90.37019864
_cell_angle_gamma   92.02726776
_symmetry_Int_Tables_number   1
_chemical_formula_structural   Sr(NbH4)2
_chemical_formula_sum   'Sr1 Nb2 H8'
_cell_volume   202.61995886
_cell_formula_units_Z   1
loop_
 _symmetry_equiv_pos_site_id
 _symmetry_equiv_pos_as_xyz
  1  'x, y, z'
loop_
 _atom_site_type_symbol
 _atom_site_label
 _atom_site_symmetry_multiplicity
 _atom_site_fract_x
 _atom_site_fract_y
 _atom_site_fract_z
 _atom_site_occupancy
  H  H0  1  0.04489700  0.08612400  0.14992700  1
  H  H1  1  0.11182000  0.15450500  0.21491100  1
  H  H2  1  0.77235700  0.81179700  0.92684000  1
  H  H3  1  0.48562700  0.66376500  0.86718000  1
  Nb  Nb4  1  0.83420600  0.54975100  0.81299900  1
  H  H5  1  0.19194200  0.91772300  0.92266800  1
  H  H6  1  0.30112900  0.71004400  0.01500500  1
  H  H7  1  0.29076200  0.56129500  0.69781400  1
  H  H8  1  0.08080200  0.22670800  0.96909500  1
  Nb  Nb9  1  0.65035400  0.81862700  0.64483100  1
  Sr  Sr10  1  0.55659900  0.37363400  0.34525400  1
