# generated using pymatgen
data_SrNbH8
_symmetry_space_group_name_H-M   'P 1'
_cell_length_a   2.83864300
_cell_length_b   8.07517623
_cell_length_c   8.50110917
_cell_angle_alpha   71.05861488
_cell_angle_beta   90.25661876
_cell_angle_gamma   90.41048068
_symmetry_Int_Tables_number   1
_chemical_formula_structural   SrNbH8
_chemical_formula_sum   'Sr1 Nb1 H8'
_cell_volume   184.31000144
_cell_formula_units_Z   1
loop_
 _symmetry_equiv_pos_site_id
 _symmetry_equiv_pos_as_xyz
  1  'x, y, z'
loop_
 _atom_site_type_symbol
 _atom_site_label
 _atom_site_symmetry_multiplicity
 _atom_site_fract_x
 _atom_site_fract_y
 _atom_site_fract_z
 _atom_site_occupancy
  H  H0  1  0.64181700  0.32116500  0.03790700  1
  H  H1  1  0.68399800  0.06206500  0.25094000  1
  H  H2  1  0.01220000  0.15189700  0.60564200  1
  H  H3  1  0.18416100  0.12797500  0.49069600  1
  Nb  Nb4  1  0.78116200  0.03420500  0.56973600  1
  H  H5  1  0.47176500  0.54589800  0.57231600  1
  H  H6  1  0.10802600  0.37005200  0.74057700  1
  H  H7  1  0.59757300  0.35989700  0.45351800  1
  Sr  Sr8  1  0.85250000  0.66222100  0.79509400  1
  H  H9  1  0.95210500  0.69951000  0.20168700  1
