# generated using pymatgen
data_Sr2NbH7
_symmetry_space_group_name_H-M   'P 1'
_cell_length_a   5.58518300
_cell_length_b   5.66288256
_cell_length_c   7.74222033
_cell_angle_alpha   71.90977553
_cell_angle_beta   75.52154834
_cell_angle_gamma   84.17157400
_symmetry_Int_Tables_number   1
_chemical_formula_structural   Sr2NbH7
_chemical_formula_sum   'Sr2 Nb1 H7'
_cell_volume   225.29996997
_cell_formula_units_Z   1
loop_
 _symmetry_equiv_pos_site_id
 _symmetry_equiv_pos_as_xyz
  1  'x, y, z'
loop_
 _atom_site_type_symbol
 _atom_site_label
 _atom_site_symmetry_multiplicity
 _atom_site_fract_x
 _atom_site_fract_y
 _atom_site_fract_z
 _atom_site_occupancy
  H  H0  1  0.78979800  0.42767600  0.25070900  1
  H  H1  1  0.75935100  0.49697900  0.33127800  1
  H  H2  1  0.92662500  0.27916200  0.32548200  1
  Sr  Sr3  1  0.94677300  0.30839400  0.08162000  1
  H  H4  1  0.46890700  0.94354800  0.69329100  1
  H  H5  1  0.55015700  0.14539300  0.61058900  1
  Nb  Nb6  1  0.52909700  0.64658700  0.69350000  1
  H  H7  1  0.78394600  0.81935900  0.51840900  1
  H  H8  1  0.43322700  0.10584700  0.36724800  1
  Sr  Sr9  1  0.32117200  0.78750500  0.20353700  1
