# generated using pymatgen
data_Sr2NbH7
_symmetry_space_group_name_H-M   'P 1'
_cell_length_a   3.23568400
_cell_length_b   6.28029176
_cell_length_c   11.11401826
_cell_angle_alpha   86.18214196
_cell_angle_beta   88.95087975
_cell_angle_gamma   89.40753481
_symmetry_Int_Tables_number   1
_chemical_formula_structural   Sr2NbH7
_chemical_formula_sum   'Sr2 Nb1 H7'
_cell_volume   225.30000022
_cell_formula_units_Z   1
loop_
 _symmetry_equiv_pos_site_id
 _symmetry_equiv_pos_as_xyz
  1  'x, y, z'
loop_
 _atom_site_type_symbol
 _atom_site_label
 _atom_site_symmetry_multiplicity
 _atom_site_fract_x
 _atom_site_fract_y
 _atom_site_fract_z
 _atom_site_occupancy
  H  H0  1  0.56198100  0.73283000  0.37192500  1
  Nb  Nb1  1  0.78369700  0.47091500  0.46979300  1
  H  H2  1  0.47916200  0.01781100  0.67783300  1
  Sr  Sr3  1  0.61172100  0.93159200  0.54990000  1
  H  H4  1  0.41363500  0.28858200  0.59271500  1
  H  H5  1  0.18748400  0.56793800  0.61345600  1
  H  H6  1  0.88292700  0.97526900  0.81891900  1
  H  H7  1  0.16075700  0.08804900  0.40958600  1
  H  H8  1  0.10355800  0.59570700  0.85243200  1
  Sr  Sr9  1  0.47212500  0.96276900  0.04688000  1
