# generated using pymatgen
data_SrNbH6
_symmetry_space_group_name_H-M   'P 1'
_cell_length_a   2.63348400
_cell_length_b   7.08650510
_cell_length_c   9.09522867
_cell_angle_alpha   109.29977977
_cell_angle_beta   95.10115134
_cell_angle_gamma   98.80372335
_symmetry_Int_Tables_number   1
_chemical_formula_structural   SrNbH6
_chemical_formula_sum   'Sr1 Nb1 H6'
_cell_volume   156.52997776
_cell_formula_units_Z   1
loop_
 _symmetry_equiv_pos_site_id
 _symmetry_equiv_pos_as_xyz
  1  'x, y, z'
loop_
 _atom_site_type_symbol
 _atom_site_label
 _atom_site_symmetry_multiplicity
 _atom_site_fract_x
 _atom_site_fract_y
 _atom_site_fract_z
 _atom_site_occupancy
  H  H0  1  0.76248700  0.08158600  0.39801800  1
  Nb  Nb1  1  0.77001300  0.83423100  0.21558800  1
  H  H2  1  0.62990800  0.36769000  0.29864700  1
  Sr  Sr3  1  0.09851800  0.56725700  0.29989500  1
  H  H4  1  0.13699400  0.02472400  0.96987400  1
  H  H5  1  0.89261600  0.03756900  0.92188700  1
  H  H6  1  0.26147400  0.16613600  0.05207300  1
  H  H7  1  0.16435800  0.70734100  0.81921500  1
