# generated using pymatgen
data_Sr(NbH4)2
_symmetry_space_group_name_H-M   'P 1'
_cell_length_a   3.51171700
_cell_length_b   7.20399801
_cell_length_c   8.17126734
_cell_angle_alpha   90.04114968
_cell_angle_beta   97.70493926
_cell_angle_gamma   98.38610105
_symmetry_Int_Tables_number   1
_chemical_formula_structural   Sr(NbH4)2
_chemical_formula_sum   'Sr1 Nb2 H8'
_cell_volume   202.61998904
_cell_formula_units_Z   1
loop_
 _symmetry_equiv_pos_site_id
 _symmetry_equiv_pos_as_xyz
  1  'x, y, z'
loop_
 _atom_site_type_symbol
 _atom_site_label
 _atom_site_symmetry_multiplicity
 _atom_site_fract_x
 _atom_site_fract_y
 _atom_site_fract_z
 _atom_site_occupancy
  H  H0  1  0.78671100  0.94177900  0.59832400  1
  H  H1  1  0.74587900  0.07967300  0.62494300  1
  H  H2  1  0.81889800  0.83565200  0.49061800  1
  H  H3  1  0.68452400  0.86775800  0.83392200  1
  H  H4  1  0.24272600  0.90165300  0.96245600  1
  Sr  Sr5  1  0.75172500  0.53480800  0.55333200  1
  Nb  Nb6  1  0.47735400  0.00230600  0.31203800  1
  H  H7  1  0.23973900  0.24973400  0.87213900  1
  H  H8  1  0.67484300  0.38028000  0.89082900  1
  Nb  Nb9  1  0.83969700  0.24202600  0.14321300  1
  H  H10  1  0.68227200  0.63913200  0.09815000  1
