# generated using pymatgen
data_Sr2NbH9
_symmetry_space_group_name_H-M   'P 1'
_cell_length_a   4.46397500
_cell_length_b   5.22302614
_cell_length_c   10.90184677
_cell_angle_alpha   92.11276983
_cell_angle_beta   90.90873713
_cell_angle_gamma   94.77887992
_symmetry_Int_Tables_number   1
_chemical_formula_structural   Sr2NbH9
_chemical_formula_sum   'Sr2 Nb1 H9'
_cell_volume   253.07999075
_cell_formula_units_Z   1
loop_
 _symmetry_equiv_pos_site_id
 _symmetry_equiv_pos_as_xyz
  1  'x, y, z'
loop_
 _atom_site_type_symbol
 _atom_site_label
 _atom_site_symmetry_multiplicity
 _atom_site_fract_x
 _atom_site_fract_y
 _atom_site_fract_z
 _atom_site_occupancy
  H  H0  1  0.11569700  0.51253600  0.34572600  1
  H  H1  1  0.31388000  0.49109700  0.25760000  1
  H  H2  1  0.06444700  0.82982800  0.53436500  1
  H  H3  1  0.83098400  0.81654500  0.55166600  1
  H  H4  1  0.32773400  0.81913100  0.44183300  1
  Sr  Sr5  1  0.05347900  0.51625600  0.56154000  1
  H  H6  1  0.20905000  0.87912100  0.76717100  1
  Nb  Nb7  1  0.51859700  0.75744900  0.67030600  1
  H  H8  1  0.56327100  0.97745400  0.88118100  1
  H  H9  1  0.92130700  0.21946900  0.99011700  1
  Sr  Sr10  1  0.77987400  0.35980400  0.86268800  1
  H  H11  1  0.14205900  0.04766600  0.12711500  1
