# generated using pymatgen
data_Sr2NbH8
_symmetry_space_group_name_H-M   'P 1'
_cell_length_a   4.72348800
_cell_length_b   6.30747807
_cell_length_c   8.99524219
_cell_angle_alpha   75.92837392
_cell_angle_beta   75.44586544
_cell_angle_gamma   69.36115349
_symmetry_Int_Tables_number   1
_chemical_formula_structural   Sr2NbH8
_chemical_formula_sum   'Sr2 Nb1 H8'
_cell_volume   239.18999184
_cell_formula_units_Z   1
loop_
 _symmetry_equiv_pos_site_id
 _symmetry_equiv_pos_as_xyz
  1  'x, y, z'
loop_
 _atom_site_type_symbol
 _atom_site_label
 _atom_site_symmetry_multiplicity
 _atom_site_fract_x
 _atom_site_fract_y
 _atom_site_fract_z
 _atom_site_occupancy
  H  H0  1  0.69664200  0.68169100  0.84419500  1
  H  H1  1  0.52773200  0.81009800  0.81374000  1
  H  H2  1  0.44013000  0.67517200  0.91760900  1
  H  H3  1  0.49382600  0.70190100  0.56424600  1
  Sr  Sr4  1  0.77447800  0.83456600  0.54006000  1
  H  H5  1  0.30124400  0.20179900  0.35735000  1
  H  H6  1  0.65333800  0.06008400  0.33104000  1
  Nb  Nb7  1  0.25079400  0.12103100  0.55339800  1
  H  H8  1  0.08144700  0.43228100  0.48467500  1
  Sr  Sr9  1  0.52539700  0.79762900  0.25043400  1
  H  H10  1  0.31022000  0.17348400  0.04328900  1
