# generated using pymatgen
data_Sr2NbH7
_symmetry_space_group_name_H-M   'P 1'
_cell_length_a   5.68537800
_cell_length_b   6.33360484
_cell_length_c   7.37521356
_cell_angle_alpha   66.28042247
_cell_angle_beta   80.50145988
_cell_angle_gamma   67.93428402
_symmetry_Int_Tables_number   1
_chemical_formula_structural   Sr2NbH7
_chemical_formula_sum   'Sr2 Nb1 H7'
_cell_volume   225.29998054
_cell_formula_units_Z   1
loop_
 _symmetry_equiv_pos_site_id
 _symmetry_equiv_pos_as_xyz
  1  'x, y, z'
loop_
 _atom_site_type_symbol
 _atom_site_label
 _atom_site_symmetry_multiplicity
 _atom_site_fract_x
 _atom_site_fract_y
 _atom_site_fract_z
 _atom_site_occupancy
  H  H0  1  0.34499200  0.40702600  0.82219700  1
  Nb  Nb1  1  0.57611200  0.32803400  0.87810700  1
  H  H2  1  0.14429900  0.63326500  0.67634700  1
  H  H3  1  0.28818800  0.53478400  0.98767000  1
  H  H4  1  0.42383800  0.24496600  0.63537500  1
  H  H5  1  0.81701700  0.39722700  0.46769000  1
  Sr  Sr6  1  0.54741300  0.56717900  0.46065200  1
  H  H7  1  0.02704100  0.10707900  0.67158300  1
  H  H8  1  0.05978400  0.03456900  0.36972600  1
  Sr  Sr9  1  0.68605200  0.78133300  0.03745900  1
