# generated using pymatgen
data_Sr(NbH4)2
_symmetry_space_group_name_H-M   'P 1'
_cell_length_a   4.75170900
_cell_length_b   6.37301622
_cell_length_c   7.03043513
_cell_angle_alpha   89.00022721
_cell_angle_beta   72.15486054
_cell_angle_gamma   89.24573105
_symmetry_Int_Tables_number   1
_chemical_formula_structural   Sr(NbH4)2
_chemical_formula_sum   'Sr1 Nb2 H8'
_cell_volume   202.61997934
_cell_formula_units_Z   1
loop_
 _symmetry_equiv_pos_site_id
 _symmetry_equiv_pos_as_xyz
  1  'x, y, z'
loop_
 _atom_site_type_symbol
 _atom_site_label
 _atom_site_symmetry_multiplicity
 _atom_site_fract_x
 _atom_site_fract_y
 _atom_site_fract_z
 _atom_site_occupancy
  H  H0  1  0.59343900  0.00923500  0.46245300  1
  Nb  Nb1  1  0.44509100  0.07175500  0.28559000  1
  H  H2  1  0.28978700  0.00920600  0.01498500  1
  H  H3  1  0.30256800  0.88978100  0.15599200  1
  H  H4  1  0.16088100  0.28990000  0.90472800  1
  H  H5  1  0.16776800  0.44347000  0.97889900  1
  Sr  Sr6  1  0.12930400  0.22898300  0.09713800  1
  H  H7  1  0.14369100  0.72859300  0.34346500  1
  H  H8  1  0.46622600  0.12291400  0.76334100  1
  H  H9  1  0.89642700  0.66550600  0.82161900  1
  Nb  Nb10  1  0.87655500  0.71420000  0.08551800  1
