# generated using pymatgen
data_SrNbH7
_symmetry_space_group_name_H-M   'P 1'
_cell_length_a   3.85572900
_cell_length_b   4.06946646
_cell_length_c   11.50650777
_cell_angle_alpha   98.50463034
_cell_angle_beta   93.99855540
_cell_angle_gamma   106.06546776
_symmetry_Int_Tables_number   1
_chemical_formula_structural   SrNbH7
_chemical_formula_sum   'Sr1 Nb1 H7'
_cell_volume   170.41998594
_cell_formula_units_Z   1
loop_
 _symmetry_equiv_pos_site_id
 _symmetry_equiv_pos_as_xyz
  1  'x, y, z'
loop_
 _atom_site_type_symbol
 _atom_site_label
 _atom_site_symmetry_multiplicity
 _atom_site_fract_x
 _atom_site_fract_y
 _atom_site_fract_z
 _atom_site_occupancy
  H  H0  1  0.06206900  0.59124000  0.66638100  1
  Sr  Sr1  1  0.02323700  0.39027100  0.55000300  1
  H  H2  1  0.92971200  0.95080900  0.38377900  1
  H  H3  1  0.76618200  0.81416900  0.40785100  1
  H  H4  1  0.64824500  0.34343100  0.27832600  1
  Nb  Nb5  1  0.82618100  0.52134900  0.35558900  1
  H  H6  1  0.90991000  0.67015000  0.27155600  1
  H  H7  1  0.17589200  0.72769900  0.35361800  1
  H  H8  1  0.63298300  0.84965400  0.24295800  1
