# generated using pymatgen
data_Sr2NbH7
_symmetry_space_group_name_H-M   'P 1'
_cell_length_a   3.55182900
_cell_length_b   8.32146107
_cell_length_c   8.46232334
_cell_angle_alpha   111.02486655
_cell_angle_beta   95.03348017
_cell_angle_gamma   101.48425082
_symmetry_Int_Tables_number   1
_chemical_formula_structural   Sr2NbH7
_chemical_formula_sum   'Sr2 Nb1 H7'
_cell_volume   225.30001957
_cell_formula_units_Z   1
loop_
 _symmetry_equiv_pos_site_id
 _symmetry_equiv_pos_as_xyz
  1  'x, y, z'
loop_
 _atom_site_type_symbol
 _atom_site_label
 _atom_site_symmetry_multiplicity
 _atom_site_fract_x
 _atom_site_fract_y
 _atom_site_fract_z
 _atom_site_occupancy
  H  H0  1  0.76072000  0.32508400  0.02394200  1
  Sr  Sr1  1  0.42648100  0.34144500  0.92282800  1
  H  H2  1  0.56190900  0.48875800  0.77186900  1
  H  H3  1  0.34007100  0.46206500  0.79763400  1
  H  H4  1  0.97559100  0.85363200  0.97409600  1
  Nb  Nb5  1  0.86423200  0.67256200  0.94026700  1
  H  H6  1  0.71453900  0.15100200  0.29955800  1
  H  H7  1  0.45033800  0.95685300  0.17225500  1
  Sr  Sr8  1  0.87285800  0.09746600  0.50365400  1
  H  H9  1  0.51792800  0.51403400  0.44498100  1
